@<TRIPOS>MOLECULE
output_1
   40    42     0     0     0
SMALL
USER_CHARGES

@<TRIPOS>ATOM
      1 N1         31.3700   34.9100   39.2500 N.3       1 MOL1       -0.9045
      2 C1         31.4200   35.0300   37.7900 C.3       1 MOL1        0.2014
      3 C2         32.8300   34.7600   37.2900 C.ar      1 MOL1       -0.1319
      4 C3         33.7600   35.8100   37.1900 C.ar      1 MOL1       -0.1267
      5 C4         35.0600   35.5500   36.7300 C.ar      1 MOL1       -0.1171
      6 C5         33.2100   33.4600   36.9300 C.ar      1 MOL1       -0.1267
      7 C6         34.5200   33.2000   36.4800 C.ar      1 MOL1       -0.1171
      8 C7         35.4600   34.2500   36.3600 C.ar      1 MOL1       -0.0435
      9 C8         36.8500   33.9800   35.8700 C.ar      1 MOL1       -0.0176
     10 C9         37.5600   32.9000   36.4600 C.ar      1 MOL1       -0.1227
     11 C10        38.8900   32.6400   36.1200 C.ar      1 MOL1       -0.1207
     12 C11        39.5600   33.4400   35.1800 C.ar      1 MOL1       -0.1263
     13 C12        38.8900   34.5100   34.5600 C.ar      1 MOL1       -0.1173
     14 C13        37.5400   34.8000   34.8600 C.ar      1 MOL1       -0.0379
     15 C14        36.8600   35.8900   34.0800 C.ar      1 MOL1       -0.0041
     16 C15        35.5500   35.7400   33.5800 C.ar      1 MOL1       -0.1265
     17 C16        34.9100   36.7500   32.8500 C.ar      1 MOL1       -0.0863
     18 C17        37.5300   37.1100   33.7900 C.ar      1 MOL1       -0.1265
     19 C18        36.9000   38.1300   33.0600 C.ar      1 MOL1       -0.0863
     20 C19        35.5800   37.9700   32.5900 C.ar      1 MOL1       -0.1756
     21 C20        34.9400   39.0900   31.8100 C.2       1 MOL1        0.6401
     22 O1         33.6000   39.0600   31.7700 O.3       1 MOL1       -0.5795
     23 O2         35.5700   39.9800   31.2800 O.2       1 MOL1       -0.4893
     24 H1         31.6900   33.9700   39.5000 H         1 MOL1        0.3502
     25 H2         32.0600   35.5400   39.6500 H         1 MOL1        0.3502
     26 H3         31.1100   36.0500   37.4900 H         1 MOL1        0.0615
     27 H4         30.7200   34.3300   37.3300 H         1 MOL1        0.0615
     28 H5         33.4800   36.8200   37.4700 H         1 MOL1        0.1343
     29 H6         35.7700   36.3700   36.6600 H         1 MOL1        0.1392
     30 H7         32.5000   32.6400   37.0100 H         1 MOL1        0.1343
     31 H8         34.8000   32.1900   36.2000 H         1 MOL1        0.1392
     32 H9         37.0700   32.2900   37.2100 H         1 MOL1        0.1383
     33 H10        39.4200   31.8200   36.6000 H         1 MOL1        0.1367
     34 H11        40.5900   33.2300   34.9200 H         1 MOL1        0.1376
     35 H12        39.4100   35.0900   33.8000 H         1 MOL1        0.1395
     36 H13        35.0200   34.8000   33.7600 H         1 MOL1        0.1489
     37 H14        33.9100   36.5600   32.4700 H         1 MOL1        0.1480
     38 H15        38.5400   37.2700   34.1500 H         1 MOL1        0.1489
     39 H16        37.4400   39.0500   32.8500 H         1 MOL1        0.1480
     40 H17        33.4000   38.3300   32.3700 H         1 MOL1        0.4262
@<TRIPOS>BOND
     1   21   23 2
     2   21   22 1
     3   22   40 1
     4   20   21 1
     5   17   37 1
     6   17   20 ar
     7   19   20 ar
     8   16   17 ar
     9   19   39 1
    10   18   19 ar
    11   16   36 1
    12   15   16 ar
    13   15   18 ar
    14   18   38 1
    15   13   35 1
    16   14   15 1
    17   13   14 ar
    18   12   13 ar
    19    9   14 ar
    20   12   34 1
    21   11   12 ar
    22    8    9 1
    23    9   10 ar
    24   10   11 ar
    25   11   33 1
    26    7   31 1
    27    7    8 ar
    28    5    8 ar
    29   10   32 1
    30    6    7 ar
    31    5   29 1
    32    4    5 ar
    33    6   30 1
    34    3    6 ar
    35    3    4 ar
    36    4   28 1
    37    2    3 1
    38    2   27 1
    39    2   26 1
    40    1    2 1
    41    1   24 1
    42    1   25 1
