@<TRIPOS>MOLECULE
MOL
   40    42     1     0     0
SMALL
bcc


@<TRIPOS>ATOM
      1 N           10.3860     2.5300    10.7310 n3         1 MOL      -0.900800
      2 C           10.3730     2.6510     9.3030 c3         1 MOL       0.195100
      3 C1          11.8150     2.4420     8.7040 ca         1 MOL      -0.126300
      4 C2          12.8080     3.4560     8.7150 ca         1 MOL      -0.126500
      5 C3          14.1470     3.2310     8.1730 ca         1 MOL      -0.114500
      6 C4          12.1820     1.2190     8.1530 ca         1 MOL      -0.126500
      7 C5          13.5070     1.0150     7.6100 ca         1 MOL      -0.114500
      8 C6          14.5110     2.0140     7.6180 cp         1 MOL      -0.045000
      9 C7          15.9720     1.7610     7.1450 cp         1 MOL      -0.022000
     10 C8          16.6890     0.7550     7.7430 ca         1 MOL      -0.121000
     11 C9          18.0910     0.5000     7.4350 ca         1 MOL      -0.122000
     12 C10         18.7710     1.2780     6.5080 ca         1 MOL      -0.127000
     13 C11         18.0740     2.2680     5.8780 ca         1 MOL      -0.116000
     14 C12         16.6560     2.5310     6.1870 cq         1 MOL      -0.039000
     15 C13         15.9560     3.5870     5.4410 cq         1 MOL      -0.004000
     16 C14         14.5990     3.4150     5.0100 ca         1 MOL      -0.123500
     17 C15         13.9910     4.3960     4.2730 ca         1 MOL      -0.087500
     18 C16         16.6740     4.7460     5.0820 ca         1 MOL      -0.123500
     19 C17         16.0800     5.7340     4.3250 ca         1 MOL      -0.087500
     20 C18         14.7220     5.5310     3.9200 ca         1 MOL      -0.174600
     21 C19         14.1280     6.4700     3.1710 c          1 MOL       0.640700
     22 O           12.9330     6.4770     3.0650 oh         1 MOL      -0.579100
     23 O1          14.8100     7.3110     2.6010 o          1 MOL      -0.486000
     24 H           10.8590     1.7780    10.9430 hn         1 MOL       0.348300
     25 H1          10.8120     3.2580    11.0610 hn         1 MOL       0.348300
     26 H2          10.0290     3.5490     9.0710 h1         1 MOL       0.060200
     27 H3           9.7280     1.9770     8.9630 h1         1 MOL       0.060200
     28 H4          12.5790     4.2980     9.0880 ha         1 MOL       0.134000
     29 H5          14.8200     3.9270     8.1870 ha         1 MOL       0.139500
     30 H6          11.5180     0.5150     8.1490 ha         1 MOL       0.134000
     31 H7          13.7330     0.1770     7.2230 ha         1 MOL       0.139500
     32 H8          16.2150     0.2250     8.3790 ha         1 MOL       0.140000
     33 H9          18.5700    -0.1950     7.8530 ha         1 MOL       0.137000
     34 H10         19.7330     1.1290     6.3060 ha         1 MOL       0.137000
     35 H11         18.5510     2.7760     5.2280 ha         1 MOL       0.140000
     36 H12         14.0940     2.6230     5.2220 ha         1 MOL       0.147500
     37 H13         13.0620     4.2820     4.0100 ha         1 MOL       0.147500
     38 H14         17.5960     4.8700     5.3580 ha         1 MOL       0.147500
     39 H15         16.5850     6.5200     4.0920 ha         1 MOL       0.147500
     40 H16         12.5530     7.0190     3.7610 ho         1 MOL       0.427000
@<TRIPOS>BOND
     1     1     2 1   
     2     1    24 1   
     3     1    25 1   
     4     2     3 1   
     5     2    26 1   
     6     2    27 1   
     7     3     4 ar  
     8     3     6 ar  
     9     4     5 ar  
    10     4    28 1   
    11     5     8 ar  
    12     5    29 1   
    13     6     7 ar  
    14     6    30 1   
    15     7     8 ar  
    16     7    31 1   
    17     8     9 1   
    18     9    10 ar  
    19     9    14 2   
    20    10    11 ar  
    21    10    32 1   
    22    11    12 ar  
    23    11    33 1   
    24    12    13 ar  
    25    12    34 1   
    26    13    14 1   
    27    13    35 1   
    28    14    15 1   
    29    15    16 1   
    30    15    18 2   
    31    16    17 ar  
    32    16    36 1   
    33    17    20 ar  
    34    17    37 1   
    35    18    19 ar  
    36    18    38 1   
    37    19    20 ar  
    38    19    39 1   
    39    20    21 1   
    40    21    22 1   
    41    21    23 2   
    42    22    40 1   
@<TRIPOS>SUBSTRUCTURE
     1 MOL         1 TEMP              0 ****  ****    0 ROOT
