@<TRIPOS>MOLECULE
output_1
  299   322     0     0     0
SMALL
USER_CHARGES

@<TRIPOS>ATOM
      1 N1         39.8300   43.4700   43.8400 N.am      1 MOL1       -0.5542
      2 N2         43.4200   40.8800   37.8800 N.am      1 MOL1       -0.5515
      3 N3         40.4200   41.8700   34.0000 N.am      1 MOL1       -0.5607
      4 N4         37.5100   45.1400   39.4500 N.am      1 MOL1       -0.5535
      5 N5         42.6900   43.3300   48.0300 N.am      1 MOL1       -0.5490
      6 N6         45.4900   39.4300   42.1400 N.am      1 MOL1       -0.5546
      7 N7         48.2900   38.4400   46.2800 N.am      1 MOL1       -0.5620
      8 N8         44.6800   43.6700   52.5900 N.3       1 MOL1       -0.9132
      9 C1         44.0600   41.5300   38.9000 C.2       1 MOL1        0.6754
     10 C2         34.4900   38.2700   35.8400 C.ar      1 MOL1       -0.0400
     11 C3         40.1600   46.7400   42.1300 C.ar      1 MOL1       -0.1186
     12 C4         40.6700   45.6100   42.8100 C.ar      1 MOL1       -0.0931
     13 C5         40.5100   40.4200   33.7900 C.3       1 MOL1        0.1335
     14 C6         42.7600   43.6400   38.4500 C.ar      1 MOL1       -0.0888
     15 C7         42.6400   45.0400   38.4600 C.ar      1 MOL1       -0.1288
     16 C8         39.2200   39.6900   34.0900 C.ar      1 MOL1       -0.1131
     17 C9         43.1800   39.4300   37.8300 C.3       1 MOL1        0.1331
     18 C10        43.9400   43.0300   38.8900 C.ar      1 MOL1       -0.1453
     19 C11        40.9800   47.4600   41.2400 C.ar      1 MOL1       -0.1266
     20 C12        44.1700   48.1600   37.8500 C.ar      1 MOL1       -0.1208
     21 C13        38.7800   39.5800   35.4200 C.ar      1 MOL1       -0.1177
     22 C14        39.8300   44.9400   43.8900 C.3       1 MOL1        0.1303
     23 C15        44.2800   49.5500   38.0800 C.ar      1 MOL1       -0.1271
     24 C16        41.9900   45.2100   42.5700 C.ar      1 MOL1       -0.1186
     25 C17        42.7900   45.9400   41.6800 C.ar      1 MOL1       -0.1266
     26 C18        42.3100   47.0600   40.9600 C.ar      1 MOL1       -0.0477
     27 C19        43.3100   49.3500   40.3300 C.ar      1 MOL1       -0.1211
     28 C20        43.2300   47.9600   40.1800 C.ar      1 MOL1       -0.0150
     29 C21        44.8900   45.2400   39.3300 C.ar      1 MOL1       -0.1288
     30 C22        43.8500   50.1300   39.2900 C.ar      1 MOL1       -0.1251
     31 C23        43.5700   47.3500   38.8300 C.ar      1 MOL1       -0.0407
     32 C24        43.6900   45.8600   38.9200 C.ar      1 MOL1       -0.0213
     33 C25        37.4900   44.3700   40.5900 C.2       1 MOL1        0.6676
     34 C26        39.7400   37.7500   38.2300 C.ar      1 MOL1       -0.1185
     35 C27        40.9900   38.1100   37.7000 C.ar      1 MOL1       -0.1231
     36 C28        41.7900   39.0800   38.3400 C.ar      1 MOL1       -0.1068
     37 C29        41.2900   39.7000   39.5000 C.ar      1 MOL1       -0.1231
     38 C30        40.0400   39.3500   40.0100 C.ar      1 MOL1       -0.1185
     39 C31        39.2400   38.3700   39.4000 C.ar      1 MOL1       -0.0545
     40 C32        35.5600   38.0700   40.1000 C.ar      1 MOL1       -0.1218
     41 C33        35.4600   36.7200   40.4900 C.ar      1 MOL1       -0.1258
     42 C34        36.6000   35.9100   40.6400 C.ar      1 MOL1       -0.1172
     43 C35        37.8900   36.4400   40.4400 C.ar      1 MOL1       -0.1187
     44 C36        38.0400   37.8000   40.1200 C.ar      1 MOL1       -0.0197
     45 C37        36.8200   38.6200   39.7800 C.ar      1 MOL1       -0.0412
     46 C38        36.9100   40.6600   41.2700 C.ar      1 MOL1       -0.1288
     47 C39        37.1600   40.0600   40.0100 C.ar      1 MOL1       -0.0167
     48 C40        37.5700   40.9100   38.9500 C.ar      1 MOL1       -0.1288
     49 C41        37.7300   42.2900   39.1300 C.ar      1 MOL1       -0.1036
     50 C42        37.4500   42.8800   40.3800 C.ar      1 MOL1       -0.1531
     51 C43        37.0600   42.0500   41.4600 C.ar      1 MOL1       -0.1036
     52 C44        45.0100   43.8400   39.3400 C.ar      1 MOL1       -0.0888
     53 C45        42.3300   44.7600   35.1600 C.ar      1 MOL1       -0.0899
     54 C46        41.1500   44.0600   34.8300 C.ar      1 MOL1       -0.1528
     55 C47        40.0200   44.7800   34.4000 C.ar      1 MOL1       -0.0899
     56 C48        40.0700   46.1900   34.3000 C.ar      1 MOL1       -0.1237
     57 C49        41.2500   46.9000   34.6400 C.ar      1 MOL1       -0.0042
     58 C50        42.3700   46.1600   35.0500 C.ar      1 MOL1       -0.1237
     59 C51        41.4300   48.3800   34.4500 C.ar      1 MOL1       -0.0423
     60 C52        40.3700   49.2100   35.1400 C.ar      1 MOL1       -0.0205
     61 C53        40.3800   50.6100   34.9800 C.ar      1 MOL1       -0.1164
     62 C54        41.3500   51.2000   34.1400 C.ar      1 MOL1       -0.1230
     63 C55        42.3300   50.4200   33.4800 C.ar      1 MOL1       -0.1293
     64 C56        42.3800   49.0200   33.6200 C.ar      1 MOL1       -0.1163
     65 C57        39.6300   48.4400   36.1900 C.ar      1 MOL1       -0.0402
     66 C58        40.2800   47.7800   37.2600 C.ar      1 MOL1       -0.1202
     67 C59        39.5400   47.1400   38.2700 C.ar      1 MOL1       -0.1183
     68 C60        38.1400   47.2100   38.2900 C.ar      1 MOL1       -0.1099
     69 C61        37.4800   47.8900   37.2500 C.ar      1 MOL1       -0.1183
     70 C62        38.2200   48.5000   36.2200 C.ar      1 MOL1       -0.1202
     71 C63        41.1800   42.5600   34.9200 C.2       1 MOL1        0.6860
     72 C64        37.3700   46.6000   39.4400 C.3       1 MOL1        0.1363
     73 C65        34.5100   39.7300   36.1500 C.ar      1 MOL1        0.0013
     74 C66        34.2000   40.2200   37.4400 C.ar      1 MOL1       -0.1246
     75 C67        33.3900   37.4900   36.2700 C.ar      1 MOL1       -0.1148
     76 C68        35.3700   36.2600   34.6800 C.ar      1 MOL1       -0.1187
     77 C69        38.4600   39.0900   33.0600 C.ar      1 MOL1       -0.1177
     78 C70        34.8300   40.6800   35.1600 C.ar      1 MOL1       -0.1246
     79 C71        34.5900   42.5300   36.7400 C.ar      1 MOL1       -0.1794
     80 C72        34.2500   35.5300   35.1100 C.ar      1 MOL1       -0.1199
     81 C73        36.8200   38.3000   34.7000 C.ar      1 MOL1       -0.0388
     82 C74        37.2800   38.4000   33.3600 C.ar      1 MOL1       -0.1214
     83 C75        33.2700   36.1400   35.9100 C.ar      1 MOL1       -0.1258
     84 C76        34.2600   41.5900   37.7400 C.ar      1 MOL1       -0.0842
     85 C77        37.5900   38.8800   35.7200 C.ar      1 MOL1       -0.1214
     86 C78        35.5400   37.6200   35.0400 C.ar      1 MOL1       -0.0230
     87 C79        34.8600   42.0600   35.4400 C.ar      1 MOL1       -0.0842
     88 C80        39.6800   40.5400   43.5900 C.ar      1 MOL1       -0.0920
     89 C81        39.8600   36.2300   43.5300 C.ar      1 MOL1       -0.0201
     90 C82        42.2300   37.0300   44.1600 C.ar      1 MOL1       -0.1203
     91 C83        40.0300   40.4400   45.9800 C.ar      1 MOL1       -0.0920
     92 C84        38.0000   34.9000   45.2100 C.ar      1 MOL1       -0.1306
     93 C85        41.5600   36.9200   41.8400 C.ar      1 MOL1       -0.1203
     94 C86        41.2200   36.7800   43.2000 C.ar      1 MOL1       -0.0427
     95 C87        38.4900   34.2900   44.0300 C.ar      1 MOL1       -0.1266
     96 C88        39.9900   41.2000   44.7900 C.ar      1 MOL1       -0.1447
     97 C89        39.4600   39.1400   43.5700 C.ar      1 MOL1       -0.1291
     98 C90        42.8400   37.3400   41.4500 C.ar      1 MOL1       -0.1181
     99 C91        39.4300   34.9300   43.2100 C.ar      1 MOL1       -0.1207
    100 C92        38.4200   36.1900   45.6000 C.ar      1 MOL1       -0.1143
    101 C93        40.2800   42.6700   44.8700 C.2       1 MOL1        0.6764
    102 C94        39.8200   39.0500   45.9500 C.ar      1 MOL1       -0.1291
    103 C95        39.5700   38.3600   44.7400 C.ar      1 MOL1       -0.0095
    104 C96        42.8400   44.7900   48.0500 C.3       1 MOL1        0.1418
    105 C97        46.3200   39.9400   43.1100 C.2       1 MOL1        0.6812
    106 C98        43.9100   46.4400   44.7600 C.ar      1 MOL1       -0.1221
    107 C99        43.1200   46.0300   45.8500 C.ar      1 MOL1       -0.1192
    108 C100       43.6800   45.2600   46.8800 C.ar      1 MOL1       -0.1018
    109 C101       45.0500   44.9500   46.8200 C.ar      1 MOL1       -0.1192
    110 C102       45.8400   45.3800   45.7400 C.ar      1 MOL1       -0.1221
    111 C103       45.2700   46.0700   44.6400 C.ar      1 MOL1       -0.0463
    112 C104       48.3900   46.2900   42.6000 C.ar      1 MOL1       -0.1218
    113 C105       48.2900   47.6000   42.1000 C.ar      1 MOL1       -0.1350
    114 C106       47.1000   48.3500   42.2200 C.ar      1 MOL1       -0.1246
    115 C107       45.9700   47.8300   42.8800 C.ar      1 MOL1       -0.1173
    116 C108       46.0300   46.5300   43.4200 C.ar      1 MOL1       -0.0186
    117 C109       47.3000   45.7300   43.2800 C.ar      1 MOL1       -0.0342
    118 C110       47.9700   43.3300   43.6000 C.ar      1 MOL1       -0.1318
    119 C111       46.9600   44.2500   43.2500 C.ar      1 MOL1       -0.0131
    120 C112       45.7300   43.7000   42.8100 C.ar      1 MOL1       -0.1318
    121 C113       45.5100   42.3200   42.7300 C.ar      1 MOL1       -0.0852
    122 C114       46.5300   41.4200   43.1200 C.ar      1 MOL1       -0.1406
    123 C115       47.7500   41.9400   43.5600 C.ar      1 MOL1       -0.0852
    124 C116       50.5000   41.2100   47.3200 C.ar      1 MOL1       -0.0931
    125 C117       42.3300   40.2500   50.0700 C.ar      1 MOL1       -0.0925
    126 C118       42.6900   41.0400   48.9500 C.ar      1 MOL1       -0.1348
    127 C119       42.8600   40.4100   47.7100 C.ar      1 MOL1       -0.0925
    128 C120       42.6300   39.0300   47.5700 C.ar      1 MOL1       -0.1280
    129 C121       42.2200   38.2400   48.6700 C.ar      1 MOL1       -0.0241
    130 C122       42.0900   38.8800   49.9200 C.ar      1 MOL1       -0.1280
    131 C123       41.7800   36.8100   48.4900 C.ar      1 MOL1       -0.0342
    132 C124       42.8900   35.9700   49.0800 C.ar      1 MOL1       -0.0150
    133 C125       42.6000   34.6600   49.5000 C.ar      1 MOL1       -0.1209
    134 C126       41.2600   34.2300   49.5600 C.ar      1 MOL1       -0.1277
    135 C127       40.2000   35.0900   49.1700 C.ar      1 MOL1       -0.1306
    136 C128       40.4500   36.3800   48.6700 C.ar      1 MOL1       -0.1257
    137 C129       44.1200   36.3400   48.3200 C.ar      1 MOL1       -0.0521
    138 C130       45.1600   37.0600   48.9600 C.ar      1 MOL1       -0.1186
    139 C131       46.3800   37.2900   48.3100 C.ar      1 MOL1       -0.1213
    140 C132       46.6000   36.8000   47.0100 C.ar      1 MOL1       -0.1014
    141 C133       45.5700   36.0800   46.3600 C.ar      1 MOL1       -0.1213
    142 C134       44.3500   35.8500   47.0200 C.ar      1 MOL1       -0.1186
    143 C135       42.8700   42.5300   49.1400 C.2       1 MOL1        0.6762
    144 C136       49.3800   43.3900   47.0900 C.ar      1 MOL1       -0.0243
    145 C137       49.4400   44.8800   46.9500 C.ar      1 MOL1       -0.0391
    146 C138       50.0700   47.6200   47.2400 C.ar      1 MOL1       -0.1270
    147 C139       50.5500   42.6200   47.3100 C.ar      1 MOL1       -0.1268
    148 C140       49.3900   45.5400   48.3100 C.ar      1 MOL1       -0.0115
    149 C141       49.6200   46.9300   48.3800 C.ar      1 MOL1       -0.1221
    150 C142       48.4600   44.7800   49.2100 C.ar      1 MOL1       -0.0600
    151 C143       48.9100   43.7000   50.0100 C.ar      1 MOL1       -0.1163
    152 C144       48.0700   43.1100   50.9600 C.ar      1 MOL1       -0.1281
    153 C145       50.2800   46.9600   46.0100 C.ar      1 MOL1       -0.1304
    154 C146       45.9000   42.9300   52.2400 C.3       1 MOL1        0.2052
    155 C147       43.5100   37.4700   43.7700 C.ar      1 MOL1       -0.1181
    156 C148       50.0000   45.5900   45.8600 C.ar      1 MOL1       -0.1204
    157 C149       47.1600   45.2700   49.4500 C.ar      1 MOL1       -0.1163
    158 C150       49.2900   40.5300   47.0600 C.ar      1 MOL1       -0.1348
    159 C151       47.9400   37.0200   46.3300 C.3       1 MOL1        0.1387
    160 C152       43.8200   37.6100   42.4100 C.ar      1 MOL1       -0.1084
    161 C153       48.1700   42.6900   46.8500 C.ar      1 MOL1       -0.1268
    162 C154       48.1200   41.2900   46.8400 C.ar      1 MOL1       -0.0931
    163 C155       45.2300   38.0000   41.9700 C.3       1 MOL1        0.1397
    164 C156       46.7600   43.5900   51.1700 C.ar      1 MOL1       -0.0569
    165 C157       46.3100   44.6800   50.4000 C.ar      1 MOL1       -0.1281
    166 C158       39.3600   36.8700   44.8100 C.ar      1 MOL1       -0.0356
    167 C159       49.2500   39.0300   47.0700 C.2       1 MOL1        0.6669
    168 O1         44.6600   40.9300   39.7800 O.2       1 MOL1       -0.6527
    169 O2         37.4300   44.8700   41.7000 O.2       1 MOL1       -0.6286
    170 O3         41.8900   41.9800   35.7200 O.2       1 MOL1       -0.6545
    171 O4         40.8700   43.1500   45.8300 O.2       1 MOL1       -0.6453
    172 O5         46.8900   39.2200   43.9100 O.2       1 MOL1       -0.6597
    173 O6         43.1300   43.0100   50.2300 O.2       1 MOL1       -0.6551
    174 O7         50.0200   38.3700   47.7500 O.2       1 MOL1       -0.6232
    175 C160       34.6500   44.0100   36.9900 C.2       1 MOL1        0.6378
    176 O8         34.6500   44.3800   38.2800 O.3       1 MOL1       -0.5874
    177 O9         34.7500   44.8400   36.1100 O.2       1 MOL1       -0.4923
    178 H1         46.5100   42.8000   53.1500 H         1 MOL1        0.0334
    179 H2         39.1500   47.0700   42.3200 H         1 MOL1        0.1450
    180 H3         34.1500   34.4800   34.8300 H         1 MOL1        0.1385
    181 H4         32.4100   35.5600   36.2400 H         1 MOL1        0.1375
    182 H5         41.9100   43.0500   38.1100 H         1 MOL1        0.1498
    183 H6         44.7200   50.1800   37.3100 H         1 MOL1        0.1347
    184 H7         41.7300   45.4900   38.0900 H         1 MOL1        0.1482
    185 H8         45.9300   43.3700   39.6900 H         1 MOL1        0.1498
    186 H9         45.7200   45.8500   39.6600 H         1 MOL1        0.1482
    187 H10        41.3100   40.0000   34.4200 H         1 MOL1        0.0692
    188 H11        39.1600   36.9600   37.7500 H         1 MOL1        0.1402
    189 H12        38.8000   39.1600   32.0300 H         1 MOL1        0.1404
    190 H13        36.8300   42.4900   42.4200 H         1 MOL1        0.1519
    191 H14        42.4200   44.3800   43.1300 H         1 MOL1        0.1450
    192 H15        42.9500   41.4500   37.1800 H         1 MOL1        0.3486
    193 H16        43.2900   39.0900   36.8000 H         1 MOL1        0.0696
    194 H17        44.5700   47.7200   36.9500 H         1 MOL1        0.1345
    195 H18        34.6800   38.7000   40.1200 H         1 MOL1        0.1314
    196 H19        43.9100   51.2100   39.4100 H         1 MOL1        0.1344
    197 H20        41.8900   40.4300   40.0400 H         1 MOL1        0.1425
    198 H21        43.8300   45.7100   41.5800 H         1 MOL1        0.1414
    199 H22        38.0500   42.8800   38.2900 H         1 MOL1        0.1519
    200 H23        36.4800   34.8700   40.9100 H         1 MOL1        0.1384
    201 H24        43.9300   38.9100   38.4400 H         1 MOL1        0.0696
    202 H25        34.4800   36.3000   40.7000 H         1 MOL1        0.1365
    203 H26        42.9200   49.8300   41.2200 H         1 MOL1        0.1383
    204 H27        37.7500   40.4800   37.9800 H         1 MOL1        0.1497
    205 H28        38.7600   35.7900   40.4900 H         1 MOL1        0.1406
    206 H29        36.1400   35.7700   34.1000 H         1 MOL1        0.1404
    207 H30        36.5700   40.0400   42.1000 H         1 MOL1        0.1497
    208 H31        32.6000   37.9500   36.8600 H         1 MOL1        0.1379
    209 H32        39.7000   39.8300   40.9200 H         1 MOL1        0.1402
    210 H33        41.3600   37.6100   36.8000 H         1 MOL1        0.1425
    211 H34        39.8800   42.4200   33.3500 H         1 MOL1        0.3171
    212 H35        43.2100   44.2200   35.4900 H         1 MOL1        0.1453
    213 H36        39.1000   44.2700   34.1500 H         1 MOL1        0.1453
    214 H37        39.2000   46.7400   33.9500 H         1 MOL1        0.1471
    215 H38        43.3000   46.6800   35.2900 H         1 MOL1        0.1471
    216 H39        39.6900   51.2300   35.5400 H         1 MOL1        0.1411
    217 H40        41.3700   52.2800   34.0300 H         1 MOL1        0.1361
    218 H41        43.0500   50.9100   32.8400 H         1 MOL1        0.1352
    219 H42        43.1200   48.4300   33.0800 H         1 MOL1        0.1378
    220 H43        41.3600   47.7600   37.2900 H         1 MOL1        0.1421
    221 H44        40.0500   46.6000   39.0600 H         1 MOL1        0.1468
    222 H45        36.3900   47.9600   37.2400 H         1 MOL1        0.1468
    223 H46        37.7000   49.0400   35.4300 H         1 MOL1        0.1421
    224 H47        37.7400   47.0100   40.3800 H         1 MOL1        0.0677
    225 H48        36.3000   46.8500   39.3600 H         1 MOL1        0.0677
    226 H49        37.4800   44.6700   38.5700 H         1 MOL1        0.3186
    227 H50        35.1000   42.7600   34.6500 H         1 MOL1        0.1468
    228 H51        34.0200   41.9000   38.7600 H         1 MOL1        0.1468
    229 H52        33.9300   39.5100   38.2200 H         1 MOL1        0.1487
    230 H53        37.2600   38.7800   36.7400 H         1 MOL1        0.1428
    231 H54        35.0500   40.3500   34.1500 H         1 MOL1        0.1487
    232 H55        36.7000   37.9500   32.5600 H         1 MOL1        0.1428
    233 H56        40.8000   40.2300   32.7500 H         1 MOL1        0.0692
    234 H57        39.3600   40.0200   36.2200 H         1 MOL1        0.1404
    235 H58        40.5800   48.3500   40.7600 H         1 MOL1        0.1414
    236 H59        40.2000   45.2800   44.8700 H         1 MOL1        0.0743
    237 H60        38.7900   45.2800   43.8100 H         1 MOL1        0.0743
    238 H61        39.3400   43.0300   43.0800 H         1 MOL1        0.3199
    239 H62        51.4000   40.6400   47.5200 H         1 MOL1        0.1465
    240 H63        47.1700   40.8000   46.6600 H         1 MOL1        0.1465
    241 H64        47.2600   43.2400   46.6600 H         1 MOL1        0.1427
    242 H65        51.4900   43.1300   47.4700 H         1 MOL1        0.1427
    243 H66        50.2200   45.0900   44.9300 H         1 MOL1        0.1316
    244 H67        49.3900   47.4600   49.3000 H         1 MOL1        0.1399
    245 H68        50.2500   48.6900   47.3100 H         1 MOL1        0.1308
    246 H69        50.6700   47.5200   45.1700 H         1 MOL1        0.1312
    247 H70        49.9200   43.3400   49.8900 H         1 MOL1        0.1358
    248 H71        46.8000   46.1300   48.8900 H         1 MOL1        0.1358
    249 H72        48.4400   42.2700   51.5500 H         1 MOL1        0.1391
    250 H73        45.3200   45.0800   50.5500 H         1 MOL1        0.1391
    251 H74        45.6300   41.9200   51.8900 H         1 MOL1        0.0334
    252 H75        48.7200   36.4500   46.8600 H         1 MOL1        0.0678
    253 H76        47.9100   36.6400   45.3000 H         1 MOL1        0.0678
    254 H77        47.1700   37.8300   48.8200 H         1 MOL1        0.1435
    255 H78        45.7300   35.6900   45.3600 H         1 MOL1        0.1435
    256 H79        45.0100   37.4300   49.9700 H         1 MOL1        0.1374
    257 H80        43.5800   35.2700   46.5200 H         1 MOL1        0.1374
    258 H81        43.4100   33.9700   49.7000 H         1 MOL1        0.1407
    259 H82        39.6200   37.0600   48.5000 H         1 MOL1        0.1328
    260 H83        41.0300   33.2300   49.9000 H         1 MOL1        0.1330
    261 H84        39.1700   34.7500   49.2800 H         1 MOL1        0.1313
    262 H85        42.7500   38.5700   46.6000 H         1 MOL1        0.1434
    263 H86        41.7700   38.3000   50.7900 H         1 MOL1        0.1434
    264 H87        42.2200   40.7200   51.0400 H         1 MOL1        0.1494
    265 H88        43.1700   40.9800   46.8300 H         1 MOL1        0.1494
    266 H89        43.3100   45.1100   48.9800 H         1 MOL1        0.0642
    267 H90        41.8400   45.2400   48.0000 H         1 MOL1        0.0642
    268 H91        45.4900   44.3700   47.6200 H         1 MOL1        0.1433
    269 H92        42.0700   46.3000   45.8800 H         1 MOL1        0.1433
    270 H93        46.9000   45.1600   45.7500 H         1 MOL1        0.1440
    271 H94        43.4400   47.0400   43.9900 H         1 MOL1        0.1440
    272 H95        45.1100   48.4700   43.0700 H         1 MOL1        0.1398
    273 H96        49.2700   45.6900   42.3800 H         1 MOL1        0.1350
    274 H97        47.0600   49.3600   41.8200 H         1 MOL1        0.1335
    275 H98        49.1300   48.0400   41.5700 H         1 MOL1        0.1310
    276 H99        44.9200   44.3500   42.5200 H         1 MOL1        0.1418
    277 H100       48.9300   43.6900   43.9400 H         1 MOL1        0.1418
    278 H101       48.5500   41.2700   43.8800 H         1 MOL1        0.1497
    279 H102       44.5500   41.9500   42.3900 H         1 MOL1        0.1497
    280 H103       45.9600   37.4100   42.5500 H         1 MOL1        0.0641
    281 H104       45.3700   37.7500   40.9200 H         1 MOL1        0.0641
    282 H105       43.0700   37.4500   40.3900 H         1 MOL1        0.1427
    283 H106       44.2700   37.6800   44.5200 H         1 MOL1        0.1427
    284 H107       40.8300   36.7100   41.0800 H         1 MOL1        0.1385
    285 H108       42.0100   36.8800   45.2200 H         1 MOL1        0.1385
    286 H109       39.8900   34.4000   42.3800 H         1 MOL1        0.1379
    287 H110       37.9600   36.6800   46.4500 H         1 MOL1        0.1365
    288 H111       38.1700   33.2800   43.7900 H         1 MOL1        0.1315
    289 H112       37.2700   34.3800   45.8200 H         1 MOL1        0.1330
    290 H113       39.8700   38.5000   46.8700 H         1 MOL1        0.1475
    291 H114       39.2100   38.6500   42.6400 H         1 MOL1        0.1475
    292 H115       39.6300   41.1000   42.6600 H         1 MOL1        0.1482
    293 H116       40.2300   40.9300   46.9300 H         1 MOL1        0.1482
    294 H117       44.1400   43.1300   53.2600 H         1 MOL1        0.3579
    295 H118       44.0900   43.6700   51.7400 H         1 MOL1        0.3579
    296 H119       42.3000   42.9100   47.1900 H         1 MOL1        0.3391
    297 H120       45.1200   40.0800   41.4400 H         1 MOL1        0.3457
    298 H121       47.7600   39.0300   45.6400 H         1 MOL1        0.3461
    299 H122       34.5700   43.5400   38.7500 H         1 MOL1        0.4306
@<TRIPOS>BOND
     1    2    9 am
     2   11   12 ar
     3    3   13 1
     4   14   15 ar
     5   13   16 1
     6    2   17 1
     7   14   18 ar
     8    9   18 1
     9   11   19 ar
    10   16   21 ar
    11    1   22 1
    12   12   22 1
    13   20   23 ar
    14   12   24 ar
    15   24   25 ar
    16   25   26 ar
    17   19   26 ar
    18   26   28 1
    19   27   28 ar
    20   23   30 ar
    21   27   30 ar
    22   20   31 ar
    23   28   31 ar
    24   31   32 1
    25   15   32 ar
    26   29   32 ar
    27    4   33 am
    28   34   35 ar
    29   35   36 ar
    30   17   36 1
    31   36   37 ar
    32   37   38 ar
    33   34   39 ar
    34   38   39 ar
    35   40   41 ar
    36   41   42 ar
    37   42   43 ar
    38   39   44 1
    39   43   44 ar
    40   44   45 ar
    41   40   45 ar
    42   45   47 1
    43   46   47 ar
    44   47   48 ar
    45   48   49 ar
    46   49   50 ar
    47   33   50 1
    48   50   51 ar
    49   46   51 ar
    50   18   52 ar
    51   29   52 ar
    52   53   54 ar
    53   54   55 ar
    54   55   56 ar
    55   56   57 ar
    56   57   58 ar
    57   53   58 ar
    58   57   59 1
    59   59   60 ar
    60   60   61 ar
    61   61   62 ar
    62   62   63 ar
    63   59   64 ar
    64   63   64 ar
    65   60   65 1
    66   65   66 ar
    67   66   67 ar
    68   67   68 ar
    69   68   69 ar
    70   69   70 ar
    71   65   70 ar
    72   54   71 1
    73    3   71 am
    74   68   72 1
    75    4   72 1
    76   10   73 1
    77   73   74 ar
    78   10   75 ar
    79   16   77 ar
    80   73   78 ar
    81   76   80 ar
    82   81   82 ar
    83   77   82 ar
    84   80   83 ar
    85   75   83 ar
    86   79   84 ar
    87   74   84 ar
    88   81   85 ar
    89   21   85 ar
    90   76   86 ar
    91   10   86 ar
    92   81   86 1
    93   78   87 ar
    94   79   87 ar
    95   89   94 1
    96   93   94 ar
    97   90   94 ar
    98   92   95 ar
    99   88   96 ar
   100   91   96 ar
   101   88   97 ar
   102   93   98 ar
   103   95   99 ar
   104   89   99 ar
   105   92  100 ar
   106    1  101 am
   107   96  101 1
   108   91  102 ar
   109   97  103 ar
   110  102  103 ar
   111    5  104 1
   112    6  105 am
   113  106  107 ar
   114  107  108 ar
   115  104  108 1
   116  108  109 ar
   117  109  110 ar
   118  106  111 ar
   119  110  111 ar
   120  112  113 ar
   121  113  114 ar
   122  114  115 ar
   123  115  116 ar
   124  111  116 1
   125  116  117 ar
   126  112  117 ar
   127  118  119 ar
   128  117  119 1
   129  119  120 ar
   130  120  121 ar
   131  121  122 ar
   132  105  122 1
   133  122  123 ar
   134  118  123 ar
   135  125  126 ar
   136  126  127 ar
   137  127  128 ar
   138  128  129 ar
   139  129  130 ar
   140  125  130 ar
   141  129  131 1
   142  131  132 ar
   143  132  133 ar
   144  133  134 ar
   145  134  135 ar
   146  135  136 ar
   147  131  136 ar
   148  132  137 1
   149  137  138 ar
   150  138  139 ar
   151  139  140 ar
   152  140  141 ar
   153  137  142 ar
   154  141  142 ar
   155    5  143 am
   156  126  143 1
   157  144  145 1
   158  144  147 ar
   159  124  147 ar
   160  145  148 ar
   161  148  149 ar
   162  146  149 ar
   163  148  150 1
   164  150  151 ar
   165  151  152 ar
   166  146  153 ar
   167    8  154 1
   168   90  155 ar
   169  153  156 ar
   170  145  156 ar
   171  150  157 ar
   172  124  158 ar
   173  140  159 1
   174    7  159 1
   175  155  160 ar
   176   98  160 ar
   177  144  161 ar
   178  161  162 ar
   179  158  162 ar
   180  160  163 1
   181    6  163 1
   182  154  164 1
   183  152  164 ar
   184  164  165 ar
   185  157  165 ar
   186   89  166 ar
   187  103  166 1
   188  100  166 ar
   189    7  167 am
   190  158  167 1
   191    9  168 2
   192   33  169 2
   193   71  170 2
   194  101  171 2
   195  105  172 2
   196  143  173 2
   197  167  174 2
   198   79  175 1
   199  175  176 1
   200  175  177 2
   201  154  178 1
   202   11  179 1
   203   80  180 1
   204   83  181 1
   205   14  182 1
   206   23  183 1
   207   15  184 1
   208   52  185 1
   209   29  186 1
   210   13  187 1
   211   34  188 1
   212   77  189 1
   213   51  190 1
   214   24  191 1
   215    2  192 1
   216   17  193 1
   217   20  194 1
   218   40  195 1
   219   30  196 1
   220   37  197 1
   221   25  198 1
   222   49  199 1
   223   42  200 1
   224   17  201 1
   225   41  202 1
   226   27  203 1
   227   48  204 1
   228   43  205 1
   229   76  206 1
   230   46  207 1
   231   75  208 1
   232   38  209 1
   233   35  210 1
   234    3  211 1
   235   53  212 1
   236   55  213 1
   237   56  214 1
   238   58  215 1
   239   61  216 1
   240   62  217 1
   241   63  218 1
   242   64  219 1
   243   66  220 1
   244   67  221 1
   245   69  222 1
   246   70  223 1
   247   72  224 1
   248   72  225 1
   249    4  226 1
   250   87  227 1
   251   84  228 1
   252   74  229 1
   253   85  230 1
   254   78  231 1
   255   82  232 1
   256   13  233 1
   257   21  234 1
   258   19  235 1
   259   22  236 1
   260   22  237 1
   261    1  238 1
   262  124  239 1
   263  162  240 1
   264  161  241 1
   265  147  242 1
   266  156  243 1
   267  149  244 1
   268  146  245 1
   269  153  246 1
   270  151  247 1
   271  157  248 1
   272  152  249 1
   273  165  250 1
   274  154  251 1
   275  159  252 1
   276  159  253 1
   277  139  254 1
   278  141  255 1
   279  138  256 1
   280  142  257 1
   281  133  258 1
   282  136  259 1
   283  134  260 1
   284  135  261 1
   285  128  262 1
   286  130  263 1
   287  125  264 1
   288  127  265 1
   289  104  266 1
   290  104  267 1
   291  109  268 1
   292  107  269 1
   293  110  270 1
   294  106  271 1
   295  115  272 1
   296  112  273 1
   297  114  274 1
   298  113  275 1
   299  120  276 1
   300  118  277 1
   301  123  278 1
   302  121  279 1
   303  163  280 1
   304  163  281 1
   305   98  282 1
   306  155  283 1
   307   93  284 1
   308   90  285 1
   309   99  286 1
   310  100  287 1
   311   95  288 1
   312   92  289 1
   313  102  290 1
   314   97  291 1
   315   88  292 1
   316   91  293 1
   317    8  294 1
   318    8  295 1
   319    5  296 1
   320    6  297 1
   321    7  298 1
   322  176  299 1
