@<TRIPOS>MOLECULE
output_1
   77    82     0     0     0
SMALL
USER_CHARGES

@<TRIPOS>ATOM
      1 N1         41.3600   36.8200   36.9900 N.am      1 MOL1       -0.5732
      2 N2         37.6500   41.8800   42.9500 N.3       1 MOL1       -0.8989
      3 C1         43.4400   39.8300   37.6500 C.ar      1 MOL1       -0.0913
      4 C2         35.3400   38.6500   40.9800 C.ar      1 MOL1       -0.0821
      5 C3         35.7800   39.3100   39.8100 C.ar      1 MOL1       -0.1780
      6 C4         35.9700   38.5500   38.6400 C.ar      1 MOL1       -0.0821
      7 C5         35.7300   37.1600   38.6400 C.ar      1 MOL1       -0.1264
      8 C6         35.3000   36.4900   39.8100 C.ar      1 MOL1        0.0049
      9 C7         35.1100   37.2600   40.9800 C.ar      1 MOL1       -0.1264
     10 C8         35.0300   35.0200   39.8000 C.ar      1 MOL1       -0.0453
     11 C9         35.9000   34.0400   39.1200 C.ar      1 MOL1       -0.0185
     12 C10        35.4800   32.6900   39.0600 C.ar      1 MOL1       -0.1198
     13 C11        34.2700   32.2800   39.6400 C.ar      1 MOL1       -0.1193
     14 C12        33.4600   33.2100   40.3200 C.ar      1 MOL1       -0.1276
     15 C13        33.8300   34.5600   40.3900 C.ar      1 MOL1       -0.1152
     16 C14        37.2600   34.3700   38.5900 C.ar      1 MOL1       -0.0456
     17 C15        38.1700   35.1300   39.3600 C.ar      1 MOL1       -0.1186
     18 C16        39.4400   35.4400   38.8700 C.ar      1 MOL1       -0.1187
     19 C17        39.8400   35.0000   37.6000 C.ar      1 MOL1       -0.1114
     20 C18        38.9600   34.2300   36.8200 C.ar      1 MOL1       -0.1187
     21 C19        37.6800   33.9200   37.3200 C.ar      1 MOL1       -0.1186
     22 C20        41.2200   35.3600   37.0800 C.3       1 MOL1        0.1339
     23 C21        42.2900   39.0400   37.4600 C.ar      1 MOL1       -0.1441
     24 C22        41.0500   39.6800   37.2600 C.ar      1 MOL1       -0.0913
     25 C23        40.9700   41.0800   37.2200 C.ar      1 MOL1       -0.1240
     26 C24        42.1200   41.8800   37.4000 C.ar      1 MOL1       -0.0055
     27 C25        43.3600   41.2300   37.6000 C.ar      1 MOL1       -0.1240
     28 C26        42.0200   43.3700   37.3100 C.ar      1 MOL1       -0.0456
     29 C27        42.2900   43.8900   38.6900 C.ar      1 MOL1       -0.0147
     30 C28        42.6600   45.2400   38.8400 C.ar      1 MOL1       -0.1186
     31 C29        42.9600   46.0100   37.7000 C.ar      1 MOL1       -0.1260
     32 C30        42.8400   45.4600   36.4000 C.ar      1 MOL1       -0.1308
     33 C31        42.4000   44.1400   36.1900 C.ar      1 MOL1       -0.1187
     34 C32        41.3600   43.1500   39.6100 C.ar      1 MOL1       -0.0523
     35 C33        41.8700   42.2000   40.5300 C.ar      1 MOL1       -0.1131
     36 C34        41.0100   41.5300   41.4100 C.ar      1 MOL1       -0.1275
     37 C35        39.6300   41.8000   41.4100 C.ar      1 MOL1       -0.0749
     38 C36        39.1200   42.7500   40.5100 C.ar      1 MOL1       -0.1275
     39 C37        39.9800   43.4200   39.6200 C.ar      1 MOL1       -0.1131
     40 C38        42.4200   37.5300   37.5000 C.2       1 MOL1        0.6736
     41 C39        38.7200   41.0500   42.3800 C.3       1 MOL1        0.2035
     42 O1         43.4000   36.9700   37.9500 O.2       1 MOL1       -0.6086
     43 C40        36.0000   40.8000   39.8600 C.2       1 MOL1        0.6458
     44 O2         36.6300   41.3200   38.8000 O.3       1 MOL1       -0.5737
     45 O3         35.6700   41.5000   40.8000 O.2       1 MOL1       -0.5157
     46 H1         35.1900   39.2200   41.9000 H         1 MOL1        0.1447
     47 H2         36.2700   39.0100   37.7000 H         1 MOL1        0.1447
     48 H3         35.8700   36.5900   37.7300 H         1 MOL1        0.1503
     49 H4         34.7800   36.7800   41.8900 H         1 MOL1        0.1503
     50 H5         36.1100   31.9500   38.5800 H         1 MOL1        0.1415
     51 H6         33.9700   31.2400   39.5900 H         1 MOL1        0.1378
     52 H7         32.5300   32.8800   40.7700 H         1 MOL1        0.1383
     53 H8         33.1700   35.2600   40.8800 H         1 MOL1        0.1389
     54 H9         37.8700   35.4800   40.3500 H         1 MOL1        0.1401
     55 H10        40.1300   36.0300   39.4800 H         1 MOL1        0.1413
     56 H11        39.2500   33.8800   35.8400 H         1 MOL1        0.1413
     57 H12        37.0000   33.3300   36.7100 H         1 MOL1        0.1401
     58 H13        41.9900   34.9500   37.7600 H         1 MOL1        0.0704
     59 H14        41.3900   34.9300   36.0900 H         1 MOL1        0.0704
     60 H15        40.5900   37.3500   36.6100 H         1 MOL1        0.3112
     61 H16        44.4000   39.3500   37.8200 H         1 MOL1        0.1422
     62 H17        40.1300   39.1000   37.1500 H         1 MOL1        0.1422
     63 H18        40.0100   41.5600   37.0700 H         1 MOL1        0.1431
     64 H19        44.2500   41.8300   37.7400 H         1 MOL1        0.1431
     65 H20        42.6600   45.7000   39.8300 H         1 MOL1        0.1430
     66 H21        43.2600   47.0500   37.8100 H         1 MOL1        0.1348
     67 H22        43.1200   46.0700   35.5400 H         1 MOL1        0.1339
     68 H23        42.4000   43.7000   35.2000 H         1 MOL1        0.1368
     69 H24        42.9300   41.9900   40.5400 H         1 MOL1        0.1356
     70 H25        41.4200   40.8000   42.1000 H         1 MOL1        0.1415
     71 H26        38.0600   42.9800   40.5000 H         1 MOL1        0.1415
     72 H27        39.5700   44.1600   38.9400 H         1 MOL1        0.1356
     73 H28        38.2800   40.1900   41.8600 H         1 MOL1        0.0277
     74 H29        39.3300   40.6500   43.2000 H         1 MOL1        0.0277
     75 H30        37.0100   42.1300   42.1900 H         1 MOL1        0.3537
     76 H31        37.0900   41.3200   43.5800 H         1 MOL1        0.3537
     77 H32        36.8500   40.5400   38.2900 H         1 MOL1        0.4268
@<TRIPOS>BOND
     1   33   68 1
     2   32   67 1
     3   20   56 1
     4   22   59 1
     5   32   33 ar
     6   28   33 ar
     7   31   32 ar
     8    1   60 1
     9   21   57 1
    10   20   21 ar
    11   19   20 ar
    12    1   22 1
    13    1   40 am
    14   25   63 1
    15   19   22 1
    16   22   58 1
    17   24   62 1
    18   24   25 ar
    19   25   26 ar
    20   23   24 ar
    21   26   28 1
    22   28   29 ar
    23   16   21 ar
    24   26   27 ar
    25   23   40 1
    26    3   23 ar
    27   40   42 2
    28   18   19 ar
    29    3   27 ar
    30   27   64 1
    31    3   61 1
    32   31   66 1
    33   30   31 ar
    34    6   47 1
    35    7   48 1
    36   44   77 1
    37   12   50 1
    38   11   16 1
    39   16   17 ar
    40    6    7 ar
    41    5    6 ar
    42    7    8 ar
    43   29   30 ar
    44   29   34 1
    45   43   44 1
    46   30   65 1
    47   17   18 ar
    48   18   55 1
    49   39   72 1
    50   11   12 ar
    51   12   13 ar
    52   10   11 ar
    53   17   54 1
    54   13   51 1
    55   34   39 ar
    56   34   35 ar
    57   38   39 ar
    58   13   14 ar
    59    8   10 1
    60   10   15 ar
    61    5   43 1
    62    4    5 ar
    63    8    9 ar
    64   43   45 2
    65   14   15 ar
    66   14   52 1
    67   15   53 1
    68   38   71 1
    69   37   38 ar
    70   35   69 1
    71   35   36 ar
    72    4    9 ar
    73    4   46 1
    74    9   49 1
    75   36   37 ar
    76   36   70 1
    77   37   41 1
    78   41   73 1
    79    2   75 1
    80    2   41 1
    81   41   74 1
    82    2   76 1
