@<TRIPOS>MOLECULE
MOL
   77    82     1     0     0
SMALL
bcc


@<TRIPOS>ATOM
      1 N           14.5400     2.2820    12.1020 n          1 MOL      -0.563900
      2 N1          10.6800     7.4680    18.5900 n3         1 MOL      -0.913800
      3 C           16.7510     5.0700    12.8500 ca         1 MOL      -0.094000
      4 C1           8.5090     4.2040    16.3410 ca         1 MOL      -0.084500
      5 C2           8.6440     4.9030    15.1390 ca         1 MOL      -0.176600
      6 C3           8.7530     4.1960    13.9390 ca         1 MOL      -0.084500
      7 C4           8.6680     2.8000    13.9420 ca         1 MOL      -0.123500
      8 C5           8.4710     2.0800    15.1310 cp         1 MOL       0.003000
      9 C6           8.4170     2.8080    16.3330 ca         1 MOL      -0.123500
     10 C7           8.2400     0.6170    15.1220 cp         1 MOL      -0.048000
     11 C8           9.1340    -0.3360    14.5660 cq         1 MOL      -0.017000
     12 C9           8.7640    -1.7010    14.5960 ca         1 MOL      -0.121000
     13 C10          7.5540    -2.1300    15.1410 ca         1 MOL      -0.122000
     14 C11          6.6800    -1.2010    15.6810 ca         1 MOL      -0.128000
     15 C12          7.0210     0.1510    15.6730 ca         1 MOL      -0.115000
     16 C13         10.4410     0.0040    13.9600 cq         1 MOL      -0.043000
     17 C14         11.4320     0.6910    14.6740 ca         1 MOL      -0.118500
     18 C15         12.6740     0.9690    14.0930 ca         1 MOL      -0.119000
     19 C16         12.9610     0.5680    12.7810 ca         1 MOL      -0.116300
     20 C17         11.9820    -0.1240    12.0640 ca         1 MOL      -0.119000
     21 C18         10.7440    -0.4050    12.6490 ca         1 MOL      -0.118500
     22 C19         14.3070     0.8610    12.1650 c3         1 MOL       0.134300
     23 C20         15.5380     4.3790    12.7970 ca         1 MOL      -0.141600
     24 C21         14.3360     5.0900    12.8120 ca         1 MOL      -0.094000
     25 C22         14.3530     6.4860    12.8570 ca         1 MOL      -0.124000
     26 C23         15.5610     7.2020    12.8910 cp         1 MOL      -0.010000
     27 C24         16.7600     6.4690    12.8870 ca         1 MOL      -0.124000
     28 C25         15.5800     8.6820    12.9230 cp         1 MOL      -0.043000
     29 C26         14.9660     9.4580    13.9440 cp         1 MOL      -0.011000
     30 C27         15.0270    10.8660    13.8460 ca         1 MOL      -0.123000
     31 C28         15.6580    11.5040    12.7780 ca         1 MOL      -0.124000
     32 C29         16.2570    10.7470    11.7820 ca         1 MOL      -0.132000
     33 C30         16.2240     9.3550    11.8590 ca         1 MOL      -0.118000
     34 C31         14.2420     8.8680    15.0940 cp         1 MOL      -0.055000
     35 C32         14.8290     7.9130    15.9350 ca         1 MOL      -0.118000
     36 C33         14.0980     7.3090    16.9650 ca         1 MOL      -0.125000
     37 C34         12.7610     7.6590    17.2050 ca         1 MOL      -0.077300
     38 C35         12.1860     8.6460    16.3980 ca         1 MOL      -0.125000
     39 C36         12.9160     9.2420    15.3650 ca         1 MOL      -0.118000
     40 C37         15.5510     2.8950    12.8010 c          1 MOL       0.669700
     41 C38         11.9990     6.9210    18.2820 c3         1 MOL       0.201100
     42 O           16.4290     2.2940    13.4100 o          1 MOL      -0.607100
     43 C39          8.6690     6.2430    15.1370 c          1 MOL       0.648700
     44 O1           9.7610     6.7390    15.1330 oh         1 MOL      -0.588100
     45 O2           7.6660     6.9430    15.1400 o          1 MOL      -0.503000
     46 H            8.4510     4.7440    17.2830 ha         1 MOL       0.147000
     47 H1           8.9020     4.7160    12.9970 ha         1 MOL       0.147000
     48 H2           8.7350     2.2760    12.9950 ha         1 MOL       0.148500
     49 H3           8.2870     2.2870    17.2800 ha         1 MOL       0.148500
     50 H4           9.4410    -2.4530    14.1920 ha         1 MOL       0.141000
     51 H5           7.3020    -3.1870    15.1430 ha         1 MOL       0.137000
     52 H6           5.7340    -1.5220    16.1060 ha         1 MOL       0.137000
     53 H7           6.3100     0.8630    16.0910 ha         1 MOL       0.140000
     54 H8          11.2500     1.0080    15.6990 ha         1 MOL       0.137500
     55 H9          13.4260     1.5010    14.6750 ha         1 MOL       0.145000
     56 H10         12.1720    -0.4530    11.0450 ha         1 MOL       0.145000
     57 H11         10.0050    -0.9490    12.0640 ha         1 MOL       0.137500
     58 H12         15.0890     0.3520    12.7390 h1         1 MOL       0.069200
     59 H13         14.3550     0.4880    11.1360 h1         1 MOL       0.069200
     60 H14         13.9450     2.8220    11.4710 hn         1 MOL       0.310500
     61 H15         17.6910     4.5210    12.8690 ha         1 MOL       0.142500
     62 H16         13.3790     4.5740    12.8150 ha         1 MOL       0.142500
     63 H17         13.4030     7.0120    12.8800 ha         1 MOL       0.145000
     64 H18         17.7170     6.9870    12.9350 ha         1 MOL       0.145000
     65 H19         14.5710    11.4820    14.6200 ha         1 MOL       0.140000
     66 H20         15.6780    12.5890    12.7280 ha         1 MOL       0.134000
     67 H21         16.7440    11.2360    10.9430 ha         1 MOL       0.134000
     68 H22         16.6930     8.7820    11.0610 ha         1 MOL       0.136000
     69 H23         15.8620     7.6090    15.7810 ha         1 MOL       0.135000
     70 H24         14.5790     6.5460    17.5730 ha         1 MOL       0.142500
     71 H25         11.1540     8.9540    16.5470 ha         1 MOL       0.142500
     72 H26         12.4190     9.9890    14.7490 ha         1 MOL       0.135000
     73 H27         11.8790     5.8770    17.9680 h1         1 MOL       0.033700
     74 H28         12.5920     6.9310    19.2030 h1         1 MOL       0.033700
     75 H29         10.1000     7.3730    17.7420 hn         1 MOL       0.361800
     76 H30         10.2290     6.8680    19.2760 hn         1 MOL       0.361800
     77 H31         10.0500     6.8700    14.2270 ho         1 MOL       0.432000
@<TRIPOS>BOND
     1     1    22 1   
     2     1    40 1   
     3     1    60 1   
     4     2    41 1   
     5     2    75 1   
     6     2    76 1   
     7     3    23 ar  
     8     3    27 ar  
     9     3    61 1   
    10     4     5 ar  
    11     4     9 ar  
    12     4    46 1   
    13     5     6 ar  
    14     5    43 1   
    15     6     7 ar  
    16     6    47 1   
    17     7     8 ar  
    18     7    48 1   
    19     8     9 ar  
    20     8    10 1   
    21     9    49 1   
    22    10    11 1   
    23    10    15 ar  
    24    11    12 2   
    25    11    16 1   
    26    12    13 ar  
    27    12    50 1   
    28    13    14 ar  
    29    13    51 1   
    30    14    15 ar  
    31    14    52 1   
    32    15    53 1   
    33    16    17 1   
    34    16    21 2   
    35    17    18 ar  
    36    17    54 1   
    37    18    19 ar  
    38    18    55 1   
    39    19    20 ar  
    40    19    22 1   
    41    20    21 ar  
    42    20    56 1   
    43    21    57 1   
    44    22    58 1   
    45    22    59 1   
    46    23    24 ar  
    47    23    40 1   
    48    24    25 ar  
    49    24    62 1   
    50    25    26 ar  
    51    25    63 1   
    52    26    27 ar  
    53    26    28 1   
    54    27    64 1   
    55    28    29 ar  
    56    28    33 ar  
    57    29    30 ar  
    58    29    34 1   
    59    30    31 ar  
    60    30    65 1   
    61    31    32 ar  
    62    31    66 1   
    63    32    33 ar  
    64    32    67 1   
    65    33    68 1   
    66    34    35 ar  
    67    34    39 ar  
    68    35    36 ar  
    69    35    69 1   
    70    36    37 ar  
    71    36    70 1   
    72    37    38 ar  
    73    37    41 1   
    74    38    39 ar  
    75    38    71 1   
    76    39    72 1   
    77    40    42 2   
    78    41    73 1   
    79    41    74 1   
    80    43    44 1   
    81    43    45 2   
    82    44    77 1   
@<TRIPOS>SUBSTRUCTURE
     1 MOL         1 TEMP              0 ****  ****    0 ROOT
