@<TRIPOS>MOLECULE
output_1
  114   122     0     0     0
SMALL
USER_CHARGES

@<TRIPOS>ATOM
      1 N1         35.9600   40.4300   40.3100 N.am      1 MOL1       -0.5683
      2 N2         42.0300   35.9100   38.9500 N.am      1 MOL1       -0.5642
      3 N3         38.3200   40.7500   44.7000 N.3       1 MOL1       -0.9046
      4 C1         35.8100   41.8900   40.2100 C.3       1 MOL1        0.1338
      5 C2         37.0900   44.0400   37.2900 C.ar      1 MOL1       -0.1200
      6 C3         36.2300   43.4500   38.2400 C.ar      1 MOL1       -0.1218
      7 C4         36.7200   42.5200   39.1700 C.ar      1 MOL1       -0.1089
      8 C5         38.0900   42.2000   39.1600 C.ar      1 MOL1       -0.1218
      9 C6         38.9500   42.7900   38.2200 C.ar      1 MOL1       -0.1200
     10 C7         38.4600   43.7000   37.2500 C.ar      1 MOL1       -0.0449
     11 C8         41.2100   43.9300   34.5600 C.ar      1 MOL1       -0.1144
     12 C9         41.3100   45.3300   34.4400 C.ar      1 MOL1       -0.1284
     13 C10        40.4400   46.1700   35.1600 C.ar      1 MOL1       -0.1202
     14 C11        39.4900   45.6200   36.0400 C.ar      1 MOL1       -0.1171
     15 C12        39.3800   44.2200   36.2100 C.ar      1 MOL1       -0.0185
     16 C13        40.2500   43.3400   35.4100 C.ar      1 MOL1       -0.0425
     17 C14        41.2500   41.0100   35.6100 C.ar      1 MOL1       -0.1229
     18 C15        40.1200   41.8500   35.4500 C.ar      1 MOL1        0.0047
     19 C16        38.8500   41.2300   35.4200 C.ar      1 MOL1       -0.1229
     20 C17        38.7000   39.8400   35.5700 C.ar      1 MOL1       -0.0841
     21 C18        39.8400   39.0300   35.7700 C.ar      1 MOL1       -0.1865
     22 C19        41.1100   39.6200   35.7800 C.ar      1 MOL1       -0.0841
     23 C20        44.1500   38.9000   39.4900 C.ar      1 MOL1       -0.0908
     24 C21        36.3400   37.5900   42.7000 C.ar      1 MOL1       -0.0889
     25 C22        36.2400   38.2700   41.4700 C.ar      1 MOL1       -0.1446
     26 C23        36.0800   37.5000   40.3000 C.ar      1 MOL1       -0.0889
     27 C24        35.9800   36.0900   40.3700 C.ar      1 MOL1       -0.1257
     28 C25        36.0500   35.4100   41.6100 C.ar      1 MOL1       -0.0022
     29 C26        36.2400   36.1900   42.7700 C.ar      1 MOL1       -0.1257
     30 C27        35.8100   33.9300   41.7900 C.ar      1 MOL1       -0.0438
     31 C28        36.2900   33.1800   40.5800 C.ar      1 MOL1       -0.0188
     32 C29        35.8000   31.8800   40.3500 C.ar      1 MOL1       -0.1201
     33 C30        34.8100   31.3500   41.2000 C.ar      1 MOL1       -0.1232
     34 C31        34.3200   32.0800   42.3000 C.ar      1 MOL1       -0.1304
     35 C32        34.8000   33.3700   42.6000 C.ar      1 MOL1       -0.1174
     36 C33        37.7000   33.6100   40.2600 C.ar      1 MOL1       -0.0456
     37 C34        38.6700   33.9600   41.2300 C.ar      1 MOL1       -0.1208
     38 C35        40.0000   34.2500   40.8500 C.ar      1 MOL1       -0.1118
     39 C36        40.3900   34.1800   39.5100 C.ar      1 MOL1       -0.1075
     40 C37        39.4400   33.8400   38.5300 C.ar      1 MOL1       -0.1118
     41 C38        38.1200   33.5500   38.9100 C.ar      1 MOL1       -0.1208
     42 C39        36.2600   39.7800   41.4800 C.2       1 MOL1        0.6829
     43 C40        41.8300   34.4700   39.1100 C.3       1 MOL1        0.1402
     44 C41        42.9900   38.1200   39.3600 C.ar      1 MOL1       -0.1329
     45 C42        41.7500   38.7600   39.1600 C.ar      1 MOL1       -0.0908
     46 C43        41.6900   40.1600   39.0700 C.ar      1 MOL1       -0.1294
     47 C44        42.8500   40.9600   39.1900 C.ar      1 MOL1       -0.0228
     48 C45        44.0900   40.3000   39.3900 C.ar      1 MOL1       -0.1294
     49 C46        42.7700   42.4500   39.0500 C.ar      1 MOL1       -0.0400
     50 C47        42.8100   43.0700   40.4200 C.ar      1 MOL1       -0.0150
     51 C48        42.9900   44.4700   40.5200 C.ar      1 MOL1       -0.1191
     52 C49        43.3400   45.2000   39.3700 C.ar      1 MOL1       -0.1268
     53 C50        43.4700   44.5800   38.1100 C.ar      1 MOL1       -0.1304
     54 C51        43.2100   43.2000   37.9500 C.ar      1 MOL1       -0.1213
     55 C52        41.9500   42.2600   41.3400 C.ar      1 MOL1       -0.0584
     56 C53        42.5100   41.2600   42.1700 C.ar      1 MOL1       -0.1161
     57 C54        41.7100   40.5400   43.0800 C.ar      1 MOL1       -0.1279
     58 C55        40.3300   40.8200   43.2000 C.ar      1 MOL1       -0.0593
     59 C56        39.7700   41.8400   42.3900 C.ar      1 MOL1       -0.1279
     60 C57        40.5800   42.5500   41.4900 C.ar      1 MOL1       -0.1161
     61 C58        43.0700   36.6200   39.4900 C.2       1 MOL1        0.6711
     62 C59        39.5000   40.0300   44.2000 C.3       1 MOL1        0.2016
     63 O1         36.4900   40.4000   42.5000 O.2       1 MOL1       -0.6382
     64 O2         44.0000   36.0600   40.0400 O.2       1 MOL1       -0.6228
     65 C60        39.7100   37.5500   36.0300 C.2       1 MOL1        0.6531
     66 O3         38.6500   36.9800   35.4400 O.3       1 MOL1       -0.5793
     67 O4         40.4800   36.9100   36.7100 O.2       1 MOL1       -0.5136
     68 H1         35.8000   39.8700   39.4900 H         1 MOL1        0.3134
     69 H2         34.7600   42.1200   39.9700 H         1 MOL1        0.0687
     70 H3         36.0200   42.3600   41.1900 H         1 MOL1        0.0687
     71 H4         36.6900   44.7400   36.5700 H         1 MOL1        0.1435
     72 H5         35.1800   43.7300   38.2500 H         1 MOL1        0.1436
     73 H6         38.4900   41.5000   39.8900 H         1 MOL1        0.1436
     74 H7         40.0000   42.5500   38.2200 H         1 MOL1        0.1435
     75 H8         41.8700   43.3000   33.9700 H         1 MOL1        0.1370
     76 H9         42.0400   45.7600   33.7700 H         1 MOL1        0.1365
     77 H10        40.5300   47.2500   35.0600 H         1 MOL1        0.1365
     78 H11        38.8700   46.2800   36.6300 H         1 MOL1        0.1420
     79 H12        42.2400   41.4500   35.6400 H         1 MOL1        0.1498
     80 H13        37.9700   41.8500   35.3100 H         1 MOL1        0.1498
     81 H14        37.7000   39.4300   35.6000 H         1 MOL1        0.1460
     82 H15        42.0000   39.0100   35.9600 H         1 MOL1        0.1460
     83 H16        36.4600   38.1500   43.6200 H         1 MOL1        0.1422
     84 H17        36.0200   37.9700   39.3200 H         1 MOL1        0.1422
     85 H18        35.8100   35.5300   39.4500 H         1 MOL1        0.1456
     86 H19        36.2800   35.7000   43.7300 H         1 MOL1        0.1456
     87 H20        36.2500   31.2500   39.5800 H         1 MOL1        0.1406
     88 H21        34.4300   30.3500   41.0200 H         1 MOL1        0.1351
     89 H22        33.5300   31.6500   42.9200 H         1 MOL1        0.1349
     90 H23        34.3400   33.9600   43.3900 H         1 MOL1        0.1371
     91 H24        38.4100   33.9800   42.2800 H         1 MOL1        0.1356
     92 H25        40.7300   34.5200   41.6200 H         1 MOL1        0.1440
     93 H26        39.7200   33.7900   37.4800 H         1 MOL1        0.1440
     94 H27        37.4000   33.2600   38.1400 H         1 MOL1        0.1356
     95 H28        42.5100   34.0800   39.8800 H         1 MOL1        0.0651
     96 H29        42.0700   33.9600   38.1700 H         1 MOL1        0.0651
     97 H30        41.3600   36.4200   38.3900 H         1 MOL1        0.3361
     98 H31        45.1100   38.4100   39.6600 H         1 MOL1        0.1481
     99 H32        40.8300   38.2000   39.1000 H         1 MOL1        0.1481
    100 H33        40.7300   40.6400   38.9300 H         1 MOL1        0.1401
    101 H34        45.0000   40.8900   39.4700 H         1 MOL1        0.1401
    102 H35        42.8200   44.9700   41.4700 H         1 MOL1        0.1417
    103 H36        43.5000   46.2800   39.4500 H         1 MOL1        0.1326
    104 H37        43.7700   45.1700   37.2500 H         1 MOL1        0.1320
    105 H38        43.3900   42.7300   36.9900 H         1 MOL1        0.1301
    106 H39        43.5700   41.0400   42.1000 H         1 MOL1        0.1361
    107 H40        42.1600   39.7700   43.6900 H         1 MOL1        0.1405
    108 H41        38.7200   42.0800   42.4800 H         1 MOL1        0.1405
    109 H42        40.1400   43.3500   40.8900 H         1 MOL1        0.1361
    110 H43        39.1800   39.0900   43.7200 H         1 MOL1        0.0324
    111 H44        40.1400   39.7600   45.0500 H         1 MOL1        0.0324
    112 H45        37.6700   40.8700   43.9000 H         1 MOL1        0.3539
    113 H46        37.8100   40.1700   45.3500 H         1 MOL1        0.3539
    114 H47        38.3300   37.6800   34.8700 H         1 MOL1        0.4294
@<TRIPOS>BOND
     1    1    4 1
     2    5    6 ar
     3    6    7 ar
     4    4    7 1
     5    7    8 ar
     6    8    9 ar
     7    9   10 ar
     8    5   10 ar
     9   11   12 ar
    10   12   13 ar
    11   13   14 ar
    12   10   15 1
    13   14   15 ar
    14   15   16 ar
    15   11   16 ar
    16   16   18 1
    17   17   18 ar
    18   18   19 ar
    19   19   20 ar
    20   20   21 ar
    21   21   22 ar
    22   17   22 ar
    23   24   25 ar
    24   25   26 ar
    25   26   27 ar
    26   27   28 ar
    27   28   29 ar
    28   24   29 ar
    29   28   30 1
    30   30   31 ar
    31   31   32 ar
    32   32   33 ar
    33   33   34 ar
    34   34   35 ar
    35   30   35 ar
    36   31   36 1
    37   36   37 ar
    38   37   38 ar
    39   38   39 ar
    40   39   40 ar
    41   40   41 ar
    42   36   41 ar
    43   25   42 1
    44    1   42 am
    45   39   43 1
    46    2   43 1
    47   23   44 ar
    48   44   45 ar
    49   45   46 ar
    50   46   47 ar
    51   23   48 ar
    52   47   48 ar
    53   47   49 1
    54   49   50 ar
    55   50   51 ar
    56   51   52 ar
    57   52   53 ar
    58   49   54 ar
    59   53   54 ar
    60   50   55 1
    61   55   56 ar
    62   56   57 ar
    63   57   58 ar
    64   58   59 ar
    65   59   60 ar
    66   55   60 ar
    67   44   61 1
    68    2   61 am
    69    3   62 1
    70   58   62 1
    71   42   63 2
    72   61   64 2
    73   21   65 1
    74   65   66 1
    75   65   67 2
    76    1   68 1
    77    4   69 1
    78    4   70 1
    79    5   71 1
    80    6   72 1
    81    8   73 1
    82    9   74 1
    83   11   75 1
    84   12   76 1
    85   13   77 1
    86   14   78 1
    87   17   79 1
    88   19   80 1
    89   20   81 1
    90   22   82 1
    91   24   83 1
    92   26   84 1
    93   27   85 1
    94   29   86 1
    95   32   87 1
    96   33   88 1
    97   34   89 1
    98   35   90 1
    99   37   91 1
   100   38   92 1
   101   40   93 1
   102   41   94 1
   103   43   95 1
   104   43   96 1
   105    2   97 1
   106   23   98 1
   107   45   99 1
   108   46  100 1
   109   48  101 1
   110   51  102 1
   111   52  103 1
   112   53  104 1
   113   54  105 1
   114   56  106 1
   115   57  107 1
   116   59  108 1
   117   60  109 1
   118   62  110 1
   119   62  111 1
   120    3  112 1
   121    3  113 1
   122   66  114 1
