@<TRIPOS>MOLECULE
output_1
  151   162     0     0     0
SMALL
USER_CHARGES

@<TRIPOS>ATOM
      1 N1         37.7100   42.1600   41.3300 N.am      1 MOL1       -0.5513
      2 N2         40.6800   38.7300   36.3300 N.am      1 MOL1       -0.5625
      3 N3         43.7200   37.6500   40.1200 N.am      1 MOL1       -0.5681
      4 N4         40.0800   42.4900   45.8300 N.3       1 MOL1       -0.9102
      5 C1         38.8800   36.6100   37.6700 C.ar      1 MOL1       -0.1166
      6 C2         40.7700   37.2800   36.1400 C.3       1 MOL1        0.1340
      7 C3         39.4500   36.5700   36.3900 C.ar      1 MOL1       -0.1151
      8 C4         34.7700   34.8300   38.1800 C.ar      1 MOL1       -0.0425
      9 C5         35.0100   38.6400   38.2500 C.ar      1 MOL1       -0.0846
     10 C6         35.8300   34.3300   37.2900 C.ar      1 MOL1       -0.0181
     11 C7         37.7100   35.8900   37.9500 C.ar      1 MOL1       -0.1231
     12 C8         34.5600   37.8600   40.5100 C.ar      1 MOL1       -0.0846
     13 C9         33.6900   32.6300   38.0800 C.ar      1 MOL1       -0.1262
     14 C10        37.6400   35.1100   35.6600 C.ar      1 MOL1       -0.1231
     15 C11        37.0600   35.1200   36.9500 C.ar      1 MOL1       -0.0412
     16 C12        34.6700   32.1700   37.1900 C.ar      1 MOL1       -0.1206
     17 C13        34.8200   38.9200   39.6200 C.ar      1 MOL1       -0.1838
     18 C14        34.9500   37.3200   37.7900 C.ar      1 MOL1       -0.1244
     19 C15        38.8100   35.8300   35.3800 C.ar      1 MOL1       -0.1166
     20 C16        35.7300   33.0100   36.8000 C.ar      1 MOL1       -0.1214
     21 C17        33.7400   33.9400   38.5700 C.ar      1 MOL1       -0.1144
     22 C18        34.5100   36.5400   40.0400 C.ar      1 MOL1       -0.1244
     23 C19        34.7200   36.2400   38.6700 C.ar      1 MOL1       -0.0020
     24 C20        37.6000   43.6100   41.1900 C.3       1 MOL1        0.1304
     25 C21        41.5000   39.4400   37.1800 C.2       1 MOL1        0.6844
     26 C22        39.1200   45.4700   38.2000 C.ar      1 MOL1       -0.1210
     27 C23        38.1800   44.9000   39.0700 C.ar      1 MOL1       -0.1208
     28 C24        38.6000   44.1800   40.2000 C.ar      1 MOL1       -0.0996
     29 C25        39.9800   44.0300   40.4400 C.ar      1 MOL1       -0.1208
     30 C26        40.9200   44.6200   39.5800 C.ar      1 MOL1       -0.1210
     31 C27        40.5100   45.3200   38.4300 C.ar      1 MOL1       -0.0443
     32 C28        42.3100   45.7900   35.1900 C.ar      1 MOL1       -0.1197
     33 C29        42.7700   47.1200   35.3000 C.ar      1 MOL1       -0.1314
     34 C30        42.5800   47.8700   36.4800 C.ar      1 MOL1       -0.1262
     35 C31        41.9500   47.3100   37.6100 C.ar      1 MOL1       -0.1149
     36 C32        41.5300   45.9700   37.5600 C.ar      1 MOL1       -0.0171
     37 C33        41.5900   45.2200   36.2500 C.ar      1 MOL1       -0.0396
     38 C34        42.6800   43.0600   37.0100 C.ar      1 MOL1       -0.1194
     39 C35        41.5300   43.7500   36.5700 C.ar      1 MOL1       -0.0094
     40 C36        40.3500   43.0100   36.3600 C.ar      1 MOL1       -0.1194
     41 C37        40.3100   41.6200   36.5800 C.ar      1 MOL1       -0.0918
     42 C38        41.4700   40.9400   37.0100 C.ar      1 MOL1       -0.1477
     43 C39        42.6500   41.6700   37.2400 C.ar      1 MOL1       -0.0918
     44 C40        45.9200   40.5700   40.7400 C.ar      1 MOL1       -0.0878
     45 C41        38.0400   39.4000   43.8000 C.ar      1 MOL1       -0.0918
     46 C42        38.0300   40.0300   42.5400 C.ar      1 MOL1       -0.1364
     47 C43        37.9000   39.2300   41.3900 C.ar      1 MOL1       -0.0918
     48 C44        37.7600   37.8300   41.5000 C.ar      1 MOL1       -0.1320
     49 C45        37.7600   37.1800   42.7600 C.ar      1 MOL1       -0.0164
     50 C46        37.9000   38.0100   43.9000 C.ar      1 MOL1       -0.1320
     51 C47        37.5100   35.7100   42.9900 C.ar      1 MOL1       -0.0406
     52 C48        38.0000   34.9200   41.8000 C.ar      1 MOL1       -0.0174
     53 C49        37.4100   33.6700   41.5200 C.ar      1 MOL1       -0.1185
     54 C50        36.3600   33.2100   42.3400 C.ar      1 MOL1       -0.1249
     55 C51        35.9000   33.9500   43.4500 C.ar      1 MOL1       -0.1344
     56 C52        36.4500   35.2000   43.7700 C.ar      1 MOL1       -0.1243
     57 C53        39.4300   35.2900   41.4700 C.ar      1 MOL1       -0.0491
     58 C54        40.3600   35.8900   42.3600 C.ar      1 MOL1       -0.1184
     59 C55        41.6700   36.1900   41.9600 C.ar      1 MOL1       -0.1184
     60 C56        42.1100   35.8700   40.6600 C.ar      1 MOL1       -0.1006
     61 C57        41.2300   35.2100   39.7900 C.ar      1 MOL1       -0.1184
     62 C58        39.9200   34.9100   40.2000 C.ar      1 MOL1       -0.1184
     63 C59        38.1300   41.5300   42.4900 C.2       1 MOL1        0.6761
     64 C60        43.5300   36.2000   40.2200 C.3       1 MOL1        0.1395
     65 C61        44.7200   39.8300   40.6200 C.ar      1 MOL1       -0.1370
     66 C62        43.5100   40.5300   40.4500 C.ar      1 MOL1       -0.0878
     67 C63        43.5100   41.9300   40.3900 C.ar      1 MOL1       -0.1296
     68 C64        44.7000   42.6800   40.5000 C.ar      1 MOL1       -0.0226
     69 C65        45.9100   41.9700   40.6600 C.ar      1 MOL1       -0.1296
     70 C66        44.6900   44.1700   40.3400 C.ar      1 MOL1       -0.0358
     71 C67        44.7300   44.8200   41.7100 C.ar      1 MOL1       -0.0176
     72 C68        44.9300   46.2100   41.7800 C.ar      1 MOL1       -0.1200
     73 C69        45.2900   46.9200   40.6200 C.ar      1 MOL1       -0.1286
     74 C70        45.4100   46.2700   39.3700 C.ar      1 MOL1       -0.1316
     75 C71        45.1500   44.9000   39.2300 C.ar      1 MOL1       -0.1207
     76 C72        43.8600   44.0300   42.6400 C.ar      1 MOL1       -0.0579
     77 C73        44.3800   43.0000   43.4500 C.ar      1 MOL1       -0.1158
     78 C74        43.5600   42.3000   44.3500 C.ar      1 MOL1       -0.1279
     79 C75        42.2000   42.6300   44.4900 C.ar      1 MOL1       -0.0607
     80 C76        41.6800   43.6800   43.7100 C.ar      1 MOL1       -0.1279
     81 C77        42.5000   44.3800   42.8100 C.ar      1 MOL1       -0.1158
     82 C78        44.7500   38.3300   40.7100 C.2       1 MOL1        0.6727
     83 C79        41.3400   41.8300   45.4600 C.3       1 MOL1        0.2045
     84 O1         42.2400   38.8800   37.9700 O.2       1 MOL1       -0.6415
     85 O2         38.5100   42.1800   43.4500 O.2       1 MOL1       -0.6487
     86 O3         45.6600   37.7400   41.2800 O.2       1 MOL1       -0.6241
     87 C80        34.9800   40.3300   40.0800 C.2       1 MOL1        0.6510
     88 O4         34.2400   40.6600   41.1500 O.3       1 MOL1       -0.5717
     89 O5         35.7200   41.1300   39.5500 O.2       1 MOL1       -0.5178
     90 H1         39.2400   35.7800   34.3800 H         1 MOL1        0.1443
     91 H2         32.9500   34.2900   39.2300 H         1 MOL1        0.1375
     92 H3         34.6300   31.1500   36.8200 H         1 MOL1        0.1373
     93 H4         32.8800   31.9700   38.3700 H         1 MOL1        0.1378
     94 H5         36.5100   32.6100   36.1600 H         1 MOL1        0.1403
     95 H6         41.5300   36.8600   36.8100 H         1 MOL1        0.0687
     96 H7         39.3700   37.1800   38.4600 H         1 MOL1        0.1443
     97 H8         41.1000   37.0800   35.1100 H         1 MOL1        0.0687
     98 H9         37.1600   34.5400   34.8700 H         1 MOL1        0.1414
     99 H10        35.1200   37.1100   36.7300 H         1 MOL1        0.1516
    100 H11        37.3200   35.8800   38.9500 H         1 MOL1        0.1414
    101 H12        34.3700   35.7200   40.7500 H         1 MOL1        0.1516
    102 H13        34.4700   38.0400   41.5800 H         1 MOL1        0.1470
    103 H14        35.2300   39.4400   37.5500 H         1 MOL1        0.1470
    104 H15        37.3100   41.5800   40.6100 H         1 MOL1        0.3349
    105 H16        36.5800   43.8400   40.8500 H         1 MOL1        0.0696
    106 H17        37.7400   44.1000   42.1600 H         1 MOL1        0.0696
    107 H18        38.7800   46.0400   37.3400 H         1 MOL1        0.1399
    108 H19        37.1200   45.0300   38.8800 H         1 MOL1        0.1436
    109 H20        40.3100   43.4700   41.3100 H         1 MOL1        0.1436
    110 H21        41.9800   44.5300   39.7900 H         1 MOL1        0.1399
    111 H22        42.5500   45.2000   34.3100 H         1 MOL1        0.1370
    112 H23        43.3100   47.5700   34.4700 H         1 MOL1        0.1333
    113 H24        42.9100   48.9100   36.5200 H         1 MOL1        0.1335
    114 H25        41.7500   47.9100   38.5000 H         1 MOL1        0.1423
    115 H26        43.6000   43.6000   37.1600 H         1 MOL1        0.1453
    116 H27        39.4500   43.5200   36.0300 H         1 MOL1        0.1453
    117 H28        39.3800   41.0900   36.4300 H         1 MOL1        0.1451
    118 H29        43.5500   41.1600   37.5700 H         1 MOL1        0.1451
    119 H30        40.1200   39.2700   35.6900 H         1 MOL1        0.3146
    120 H31        38.1500   40.0000   44.7000 H         1 MOL1        0.1502
    121 H32        37.9200   39.6700   40.3900 H         1 MOL1        0.1502
    122 H33        37.6300   37.2500   40.6000 H         1 MOL1        0.1423
    123 H34        37.9000   37.5500   44.8900 H         1 MOL1        0.1423
    124 H35        37.8200   33.0300   40.7500 H         1 MOL1        0.1410
    125 H36        35.9200   32.2300   42.1300 H         1 MOL1        0.1350
    126 H37        35.0900   33.5600   44.0500 H         1 MOL1        0.1340
    127 H38        36.0100   35.8100   44.5500 H         1 MOL1        0.1346
    128 H39        40.0700   36.1400   43.3800 H         1 MOL1        0.1385
    129 H40        42.3500   36.6800   42.6500 H         1 MOL1        0.1404
    130 H41        41.5600   34.9300   38.7900 H         1 MOL1        0.1404
    131 H42        39.2700   34.3900   39.5100 H         1 MOL1        0.1385
    132 H43        44.2400   35.7700   40.9400 H         1 MOL1        0.0638
    133 H44        43.7300   35.7500   39.2400 H         1 MOL1        0.0638
    134 H45        43.0800   38.1900   39.5300 H         1 MOL1        0.3422
    135 H46        46.8600   40.0400   40.8900 H         1 MOL1        0.1506
    136 H47        42.5700   40.0000   40.3900 H         1 MOL1        0.1506
    137 H48        42.5600   42.4500   40.2600 H         1 MOL1        0.1416
    138 H49        46.8500   42.5200   40.7400 H         1 MOL1        0.1416
    139 H50        44.7600   46.7300   42.7200 H         1 MOL1        0.1406
    140 H51        45.4500   47.9900   40.6800 H         1 MOL1        0.1325
    141 H52        45.7300   46.8400   38.5000 H         1 MOL1        0.1312
    142 H53        45.3200   44.4000   38.2800 H         1 MOL1        0.1330
    143 H54        45.4300   42.7400   43.3700 H         1 MOL1        0.1364
    144 H55        43.9800   41.4900   44.9400 H         1 MOL1        0.1405
    145 H56        40.6300   43.9700   43.8100 H         1 MOL1        0.1405
    146 H57        42.0800   45.2000   42.2300 H         1 MOL1        0.1364
    147 H58        41.1200   40.8600   45.0100 H         1 MOL1        0.0312
    148 H59        41.9300   41.6500   46.3700 H         1 MOL1        0.0312
    149 H60        39.5200   42.5800   44.9600 H         1 MOL1        0.3562
    150 H61        39.5400   41.8900   46.4300 H         1 MOL1        0.3562
    151 H62        33.6900   39.8800   41.2700 H         1 MOL1        0.4312
@<TRIPOS>BOND
     1    2    6 1
     2    5    7 ar
     3    6    7 1
     4    8   10 ar
     5    5   11 ar
     6   14   15 ar
     7   10   15 1
     8   11   15 ar
     9   13   16 ar
    10    9   17 ar
    11   12   17 ar
    12    9   18 ar
    13   14   19 ar
    14    7   19 ar
    15   16   20 ar
    16   10   20 ar
    17   13   21 ar
    18    8   21 ar
    19   12   22 ar
    20    8   23 1
    21   18   23 ar
    22   22   23 ar
    23    1   24 1
    24    2   25 am
    25   26   27 ar
    26   24   28 1
    27   27   28 ar
    28   28   29 ar
    29   29   30 ar
    30   26   31 ar
    31   30   31 ar
    32   32   33 ar
    33   33   34 ar
    34   34   35 ar
    35   35   36 ar
    36   31   36 1
    37   32   37 ar
    38   36   37 ar
    39   38   39 ar
    40   37   39 1
    41   39   40 ar
    42   40   41 ar
    43   25   42 1
    44   41   42 ar
    45   42   43 ar
    46   38   43 ar
    47   45   46 ar
    48   46   47 ar
    49   47   48 ar
    50   48   49 ar
    51   49   50 ar
    52   45   50 ar
    53   49   51 1
    54   51   52 ar
    55   52   53 ar
    56   53   54 ar
    57   54   55 ar
    58   55   56 ar
    59   51   56 ar
    60   52   57 1
    61   57   58 ar
    62   58   59 ar
    63   59   60 ar
    64   60   61 ar
    65   57   62 ar
    66   61   62 ar
    67   46   63 1
    68    1   63 am
    69   60   64 1
    70    3   64 1
    71   44   65 ar
    72   65   66 ar
    73   66   67 ar
    74   67   68 ar
    75   68   69 ar
    76   44   69 ar
    77   68   70 1
    78   70   71 ar
    79   71   72 ar
    80   72   73 ar
    81   73   74 ar
    82   70   75 ar
    83   74   75 ar
    84   71   76 1
    85   76   77 ar
    86   77   78 ar
    87   78   79 ar
    88   79   80 ar
    89   80   81 ar
    90   76   81 ar
    91    3   82 am
    92   65   82 1
    93   79   83 1
    94    4   83 1
    95   25   84 2
    96   63   85 2
    97   82   86 2
    98   17   87 1
    99   87   88 1
   100   87   89 2
   101   19   90 1
   102   21   91 1
   103   16   92 1
   104   13   93 1
   105   20   94 1
   106    6   95 1
   107    5   96 1
   108    6   97 1
   109   14   98 1
   110   18   99 1
   111   11  100 1
   112   22  101 1
   113   12  102 1
   114    9  103 1
   115    1  104 1
   116   24  105 1
   117   24  106 1
   118   26  107 1
   119   27  108 1
   120   29  109 1
   121   30  110 1
   122   32  111 1
   123   33  112 1
   124   34  113 1
   125   35  114 1
   126   38  115 1
   127   40  116 1
   128   41  117 1
   129   43  118 1
   130    2  119 1
   131   45  120 1
   132   47  121 1
   133   48  122 1
   134   50  123 1
   135   53  124 1
   136   54  125 1
   137   55  126 1
   138   56  127 1
   139   58  128 1
   140   59  129 1
   141   61  130 1
   142   62  131 1
   143   64  132 1
   144   64  133 1
   145    3  134 1
   146   44  135 1
   147   66  136 1
   148   67  137 1
   149   69  138 1
   150   72  139 1
   151   73  140 1
   152   74  141 1
   153   75  142 1
   154   77  143 1
   155   78  144 1
   156   80  145 1
   157   81  146 1
   158   83  147 1
   159   83  148 1
   160    4  149 1
   161    4  150 1
   162   88  151 1
