@<TRIPOS>MOLECULE
MOL
  114   122     1     0     0
SMALL
bcc


@<TRIPOS>ATOM
      1 N            8.1720     7.0380    14.0800 n          1 MOL      -0.556900
      2 N1          14.5400     2.2820    12.1020 n          1 MOL      -0.548900
      3 N2          10.6800     7.4680    18.5900 n3         1 MOL      -0.902800
      4 C            8.1570     8.4810    13.9740 c3         1 MOL       0.131300
      5 C1           9.5650    10.4540    11.0160 ca         1 MOL      -0.120500
      6 C2           8.6770     9.9420    11.9730 ca         1 MOL      -0.120000
      7 C3           9.1000     8.9910    12.9090 ca         1 MOL      -0.118300
      8 C4          10.4400     8.5900    12.8780 ca         1 MOL      -0.120000
      9 C5          11.3290     9.1210    11.9340 ca         1 MOL      -0.120500
     10 C6          10.9090    10.0490    10.9730 cp         1 MOL      -0.041000
     11 C7          13.5110    10.4580     8.1910 ca         1 MOL      -0.116000
     12 C8          13.6360    11.8470     8.1610 ca         1 MOL      -0.126000
     13 C9          12.8840    12.6250     9.0290 ca         1 MOL      -0.121000
     14 C10         12.0050    12.0140     9.9230 ca         1 MOL      -0.117000
     15 C11         11.8520    10.6100     9.9760 cp         1 MOL      -0.022000
     16 C12         12.6300     9.8140     9.0880 cq         1 MOL      -0.042000
     17 C13         13.6800     7.5540     9.3610 ca         1 MOL      -0.121000
     18 C14         12.5590     8.3380     9.0520 cq         1 MOL       0.003000
     19 C15         11.3650     7.6790     8.7330 ca         1 MOL      -0.121000
     20 C16         11.2660     6.2830     8.7840 ca         1 MOL      -0.088500
     21 C17         12.3860     5.5160     9.1150 ca         1 MOL      -0.184600
     22 C18         13.5970     6.1580     9.3910 ca         1 MOL      -0.088500
     23 C19         16.7510     5.0700    12.8500 ca         1 MOL      -0.095500
     24 C20          8.5090     4.2040    16.3410 ca         1 MOL      -0.095000
     25 C21          8.6440     4.9030    15.1390 ca         1 MOL      -0.148600
     26 C22          8.7530     4.1960    13.9390 ca         1 MOL      -0.095000
     27 C23          8.6680     2.8000    13.9420 ca         1 MOL      -0.121500
     28 C24          8.4710     2.0800    15.1310 cp         1 MOL      -0.005000
     29 C25          8.4170     2.8080    16.3330 ca         1 MOL      -0.121500
     30 C26          8.2400     0.6170    15.1220 cp         1 MOL      -0.038000
     31 C27          9.1340    -0.3360    14.5660 cp         1 MOL      -0.017000
     32 C28          8.7640    -1.7010    14.5960 ca         1 MOL      -0.119000
     33 C29          7.5540    -2.1300    15.1410 ca         1 MOL      -0.125000
     34 C30          6.6800    -1.2010    15.6810 ca         1 MOL      -0.131000
     35 C31          7.0210     0.1510    15.6730 ca         1 MOL      -0.120000
     36 C32         10.4410     0.0040    13.9600 cp         1 MOL      -0.048000
     37 C33         11.4320     0.6910    14.6740 ca         1 MOL      -0.124000
     38 C34         12.6740     0.9690    14.0930 ca         1 MOL      -0.116000
     39 C35         12.9610     0.5680    12.7810 ca         1 MOL      -0.113300
     40 C36         11.9820    -0.1240    12.0640 ca         1 MOL      -0.116000
     41 C37         10.7440    -0.4050    12.6490 ca         1 MOL      -0.124000
     42 C38          8.6980     6.3890    15.1740 c          1 MOL       0.679700
     43 C39         14.3070     0.8610    12.1650 c3         1 MOL       0.133300
     44 C40         15.5380     4.3790    12.7970 ca         1 MOL      -0.135600
     45 C41         14.3360     5.0900    12.8120 ca         1 MOL      -0.095500
     46 C42         14.3530     6.4860    12.8570 ca         1 MOL      -0.124500
     47 C43         15.5610     7.2020    12.8910 cp         1 MOL      -0.020000
     48 C44         16.7600     6.4690    12.8870 ca         1 MOL      -0.124500
     49 C45         15.5800     8.6820    12.9230 cp         1 MOL      -0.032000
     50 C46         14.9660     9.4580    13.9440 cp         1 MOL      -0.020000
     51 C47         15.0270    10.8660    13.8460 ca         1 MOL      -0.119000
     52 C48         15.6580    11.5040    12.7780 ca         1 MOL      -0.128000
     53 C49         16.2570    10.7470    11.7820 ca         1 MOL      -0.131000
     54 C50         16.2240     9.3550    11.8590 ca         1 MOL      -0.123000
     55 C51         14.2420     8.8680    15.0940 cp         1 MOL      -0.052000
     56 C52         14.8290     7.9130    15.9350 ca         1 MOL      -0.116500
     57 C53         14.0980     7.3090    16.9650 ca         1 MOL      -0.130000
     58 C54         12.7610     7.6590    17.2050 ca         1 MOL      -0.110300
     59 C55         12.1860     8.6460    16.3980 ca         1 MOL      -0.130000
     60 C56         12.9160     9.2420    15.3650 ca         1 MOL      -0.116500
     61 C57         15.5510     2.8950    12.8010 c          1 MOL       0.662700
     62 C58         11.9990     6.9210    18.2820 c3         1 MOL       0.196100
     63 O            9.1720     6.9560    16.1520 o          1 MOL      -0.636100
     64 O1          16.4290     2.2940    13.4100 o          1 MOL      -0.613100
     65 C59         12.3000     4.1800     9.1670 c          1 MOL       0.648700
     66 O2          11.1870     3.7330     9.1530 oh         1 MOL      -0.577100
     67 O3          13.2700     3.4360     9.2270 o          1 MOL      -0.508000
     68 H            7.5230     6.5210    13.4870 hn         1 MOL       0.311500
     69 H1           7.1250     8.7600    13.7340 h1         1 MOL       0.070700
     70 H2           8.4130     8.9470    14.9310 h1         1 MOL       0.070700
     71 H3           9.1930    11.1790    10.2970 ha         1 MOL       0.140000
     72 H4           7.6470    10.2920    11.9710 ha         1 MOL       0.144000
     73 H5          10.8120     7.8750    13.6100 ha         1 MOL       0.144000
     74 H6          12.3710     8.8140    11.9640 ha         1 MOL       0.140000
     75 H7          14.1060     9.8660     7.4990 ha         1 MOL       0.138000
     76 H8          14.3240    12.3160     7.4620 ha         1 MOL       0.137000
     77 H9          12.9830    13.7070     9.0190 ha         1 MOL       0.137000
     78 H10         11.4410    12.6450    10.6090 ha         1 MOL       0.142000
     79 H11         14.6250     8.0290     9.6130 ha         1 MOL       0.150500
     80 H12         10.4920     8.2700     8.4700 ha         1 MOL       0.150500
     81 H13         10.2990     5.8230     8.6070 ha         1 MOL       0.146000
     82 H14         14.4800     5.5780     9.6550 ha         1 MOL       0.146000
     83 H15          8.4510     4.7440    17.2830 ha         1 MOL       0.145500
     84 H16          8.9020     4.7160    12.9970 ha         1 MOL       0.145500
     85 H17          8.7350     2.2760    12.9950 ha         1 MOL       0.147000
     86 H18          8.2870     2.2870    17.2800 ha         1 MOL       0.147000
     87 H19          9.4410    -2.4530    14.1920 ha         1 MOL       0.142000
     88 H20          7.3020    -3.1870    15.1430 ha         1 MOL       0.134000
     89 H21          5.7340    -1.5220    16.1060 ha         1 MOL       0.134000
     90 H22          6.3100     0.8630    16.0910 ha         1 MOL       0.136000
     91 H23         11.2500     1.0080    15.6990 ha         1 MOL       0.135000
     92 H24         13.4260     1.5010    14.6750 ha         1 MOL       0.151000
     93 H25         12.1720    -0.4530    11.0450 ha         1 MOL       0.151000
     94 H26         10.0050    -0.9490    12.0640 ha         1 MOL       0.135000
     95 H27         15.0890     0.3520    12.7390 h1         1 MOL       0.073700
     96 H28         14.3550     0.4880    11.1360 h1         1 MOL       0.073700
     97 H29         13.9450     2.8220    11.4710 hn         1 MOL       0.321500
     98 H30         17.6910     4.5210    12.8690 ha         1 MOL       0.146000
     99 H31         13.3790     4.5740    12.8150 ha         1 MOL       0.146000
    100 H32         13.4030     7.0120    12.8800 ha         1 MOL       0.140000
    101 H33         17.7170     6.9870    12.9350 ha         1 MOL       0.140000
    102 H34         14.5710    11.4820    14.6200 ha         1 MOL       0.140000
    103 H35         15.6780    12.5890    12.7280 ha         1 MOL       0.133000
    104 H36         16.7440    11.2360    10.9430 ha         1 MOL       0.132000
    105 H37         16.6930     8.7820    11.0610 ha         1 MOL       0.135000
    106 H38         15.8620     7.6090    15.7810 ha         1 MOL       0.133000
    107 H39         14.5790     6.5460    17.5730 ha         1 MOL       0.143000
    108 H40         11.1540     8.9540    16.5470 ha         1 MOL       0.143000
    109 H41         12.4190     9.9890    14.7490 ha         1 MOL       0.133000
    110 H42         11.8790     5.8770    17.9680 h1         1 MOL       0.056200
    111 H43         12.5920     6.9310    19.2030 h1         1 MOL       0.056200
    112 H44         10.1000     7.3730    17.7420 hn         1 MOL       0.355800
    113 H45         10.2290     6.8680    19.2760 hn         1 MOL       0.355800
    114 H46         10.9160     3.5760     8.2450 ho         1 MOL       0.430000
@<TRIPOS>BOND
     1     1     4 1   
     2     1    42 1   
     3     1    68 1   
     4     2    43 1   
     5     2    61 1   
     6     2    97 1   
     7     3    62 1   
     8     3   112 1   
     9     3   113 1   
    10     4     7 1   
    11     4    69 1   
    12     4    70 1   
    13     5     6 ar  
    14     5    10 ar  
    15     5    71 1   
    16     6     7 ar  
    17     6    72 1   
    18     7     8 ar  
    19     8     9 ar  
    20     8    73 1   
    21     9    10 ar  
    22     9    74 1   
    23    10    15 1   
    24    11    12 ar  
    25    11    16 2   
    26    11    75 1   
    27    12    13 ar  
    28    12    76 1   
    29    13    14 ar  
    30    13    77 1   
    31    14    15 ar  
    32    14    78 1   
    33    15    16 1   
    34    16    18 1   
    35    17    18 1   
    36    17    22 ar  
    37    17    79 1   
    38    18    19 2   
    39    19    20 ar  
    40    19    80 1   
    41    20    21 ar  
    42    20    81 1   
    43    21    22 ar  
    44    21    65 1   
    45    22    82 1   
    46    23    44 ar  
    47    23    48 ar  
    48    23    98 1   
    49    24    25 ar  
    50    24    29 ar  
    51    24    83 1   
    52    25    26 ar  
    53    25    42 1   
    54    26    27 ar  
    55    26    84 1   
    56    27    28 ar  
    57    27    85 1   
    58    28    29 ar  
    59    28    30 1   
    60    29    86 1   
    61    30    31 ar  
    62    30    35 ar  
    63    31    32 ar  
    64    31    36 1   
    65    32    33 ar  
    66    32    87 1   
    67    33    34 ar  
    68    33    88 1   
    69    34    35 ar  
    70    34    89 1   
    71    35    90 1   
    72    36    37 ar  
    73    36    41 ar  
    74    37    38 ar  
    75    37    91 1   
    76    38    39 ar  
    77    38    92 1   
    78    39    40 ar  
    79    39    43 1   
    80    40    41 ar  
    81    40    93 1   
    82    41    94 1   
    83    42    63 2   
    84    43    95 1   
    85    43    96 1   
    86    44    45 ar  
    87    44    61 1   
    88    45    46 ar  
    89    45    99 1   
    90    46    47 ar  
    91    46   100 1   
    92    47    48 ar  
    93    47    49 1   
    94    48   101 1   
    95    49    50 ar  
    96    49    54 ar  
    97    50    51 ar  
    98    50    55 1   
    99    51    52 ar  
   100    51   102 1   
   101    52    53 ar  
   102    52   103 1   
   103    53    54 ar  
   104    53   104 1   
   105    54   105 1   
   106    55    56 ar  
   107    55    60 ar  
   108    56    57 ar  
   109    56   106 1   
   110    57    58 ar  
   111    57   107 1   
   112    58    59 ar  
   113    58    62 1   
   114    59    60 ar  
   115    59   108 1   
   116    60   109 1   
   117    61    64 2   
   118    62   110 1   
   119    62   111 1   
   120    65    66 1   
   121    65    67 2   
   122    66   114 1   
@<TRIPOS>SUBSTRUCTURE
     1 MOL         1 TEMP              0 ****  ****    0 ROOT
