data_gellman186_sq
_audit_creation_date               2019-05-16
_audit_creation_method
;
Olex2 1.3-alpha
(compiled 2019.04.25 svn.r3594 for OlexSys, GUI svn.r5751)
;
_shelx_SHELXL_version_number       '2018/3'
loop_
  _audit_author_name
  _audit_author_email
  _audit_author_address
 'Wheaton, A.M.' amwheaton@wisc.edu
;
University of Wisconsin-Madison
Chemistry
1101 University Ave.
Madison
53706
USA
;
 'Guzei, I.A.' iguzei@chem.wisc.edu
;
University of Wisconsin-Madison
Chemistry
1101 University Ave.
Madison
53706
USA
;

_audit_contact_author_address      ?
_audit_contact_author_email        ?
_audit_contact_author_name         ''
_audit_contact_author_phone        ?
_publ_contact_author_id_orcid      ?
_publ_section_references
;
Bruker-AXS (2019). APEX3. Version 2018.7-2. Madison, Wisconsin, USA.

Dolomanov, O.V., Bourhis, L.J., Gildea, R.J, Howard, J.A.K. & Puschmann, H.
 (2009), J. Appl. Cryst. 42, 339-341.

Dolomanov, O.V., Bourhis, L.J., Gildea, R.J, Howard, J.A.K. & Puschmann, H.
"OLEX2: a complete structure solution, refinement and analysis program".
(2009), J. Appl. Cryst. 42, 339-341.

Krause, L., Herbst-Irmer, R., Sheldrick, G. M. & Stalke, D. (2015). 
J. Appl. Crystallogr. 48, 3-10.

Sheldrick, G.M. (2008). Acta Cryst. A64, 112-122.

Sheldrick, G.M. (2015). Acta Cryst. A71, 3-8.

Sheldrick, G.M. (2015a). "SHELXT - Integrated space-group and crystal-structure 
determination". Acta Cryst. A71, 3-8.

Sheldrick, G.M. (2015b). "Crystal structure refinement with SHELXL". 
Acta Cryst. C71, 3-8.
;
_chemical_name_common              ?
_chemical_name_systematic          ?
_chemical_formula_moiety           'Cl, C21 H20 N O2'
_chemical_formula_sum              'C21 H20 Cl N O2'
_chemical_formula_weight           353.83
_chemical_melting_point            ?
loop_
  _atom_type_symbol
  _atom_type_description
  _atom_type_scat_dispersion_real
  _atom_type_scat_dispersion_imag
  _atom_type_scat_source
 'C' 'C' 0.0033 0.0016 'International Tables Vol C Tables 4.2.6.8 and 6.1.1.4'
 'H' 'H' 0.0000 0.0000 'International Tables Vol C Tables 4.2.6.8 and 6.1.1.4'
 'Cl' 'Cl' 0.1484 0.1585 'International Tables Vol C Tables 4.2.6.8 and 6.1.1.4'
 'N' 'N' 0.0061 0.0033 'International Tables Vol C Tables 4.2.6.8 and 6.1.1.4'
 'O' 'O' 0.0106 0.0060 'International Tables Vol C Tables 4.2.6.8 and 6.1.1.4'

_shelx_space_group_comment
;
The symmetry employed for this shelxl refinement is uniquely defined
by the following loop, which should always be used as a source of
symmetry information in preference to the above space-group names.
They are only intended as comments.
;
_space_group_crystal_system        'monoclinic'
_space_group_IT_number             14
_space_group_name_H-M_alt          'P 1 21/c 1'
_space_group_name_Hall             '-P 2ybc'
loop_
  _space_group_symop_operation_xyz
 'x, y, z'
 '-x, y+1/2, -z+1/2'
 '-x, -y, -z'
 'x, -y-1/2, z-1/2'

_cell_length_a                     17.997(6)
_cell_length_b                     6.1519(18)
_cell_length_c                     19.636(6)
_cell_angle_alpha                  90
_cell_angle_beta                   106.549(11)
_cell_angle_gamma                  90
_cell_volume                       2083.9(11)
_cell_formula_units_Z              4
_cell_measurement_reflns_used      4783
_cell_measurement_temperature      99.99
_cell_measurement_theta_max        26.305
_cell_measurement_theta_min        2.361
_shelx_estimated_absorpt_T_max     0.985
_shelx_estimated_absorpt_T_min     0.981
_exptl_absorpt_coefficient_mu      0.195
_exptl_absorpt_correction_T_max    0.745372
_exptl_absorpt_correction_T_min    0.524456
_exptl_absorpt_correction_type     multi-scan
_exptl_absorpt_process_details
;
 TWINABS-2012/1 (Bruker,2012) was used for absorption correction.
;
_exptl_absorpt_special_details     ?
_exptl_crystal_colour              colourless
_exptl_crystal_colour_primary      colourless
_exptl_crystal_density_diffrn      1.128
_exptl_crystal_density_meas        ?
_exptl_crystal_density_method      'not measured'
_exptl_crystal_description         block
_exptl_crystal_F_000               744
_exptl_crystal_size_max            0.1
_exptl_crystal_size_mid            0.1
_exptl_crystal_size_min            0.08
_exptl_transmission_factor_max     ?
_exptl_transmission_factor_min     ?
_diffrn_reflns_av_R_equivalents    ?
_diffrn_reflns_av_unetI/netI       0.0582
_diffrn_reflns_Laue_measured_fraction_full  1.000
_diffrn_reflns_Laue_measured_fraction_max  0.996
_diffrn_reflns_limit_h_max         21
_diffrn_reflns_limit_h_min         -22
_diffrn_reflns_limit_k_max         7
_diffrn_reflns_limit_k_min         0
_diffrn_reflns_limit_l_max         24
_diffrn_reflns_limit_l_min         0
_diffrn_reflns_number              4282
_diffrn_reflns_point_group_measured_fraction_full  1.000
_diffrn_reflns_point_group_measured_fraction_max  0.996
_diffrn_reflns_theta_full          25.000
_diffrn_reflns_theta_max           26.441
_diffrn_reflns_theta_min           1.180
_diffrn_ambient_temperature        99.99
_diffrn_detector                   'charge-coupled device (CCD) area detector'
_diffrn_detector_area_resol_mean   7.9
_diffrn_detector_type              'Bruker APEX II'
_diffrn_measured_fraction_theta_full  1.000
_diffrn_measured_fraction_theta_max  0.996
_diffrn_measurement_device         'three-circle diffractometer'
_diffrn_measurement_device_type    'Bruker APEX II Quazar'
_diffrn_measurement_method         '0.5\% \w and 0.5\% \f scans'
_diffrn_radiation_collimation      'focusing mirrors'
_diffrn_radiation_detector         'Bruker APEX II'
_diffrn_radiation_monochromator    'mirror optics'
_diffrn_radiation_probe            x-ray
_diffrn_radiation_type             'Mo K\a'
_diffrn_radiation_wavelength       0.71073
_diffrn_radiation_xray_symbol      K-L~3~
_diffrn_source                     'microfocus sealed X-ray tube'
_diffrn_source_type                'Incoatec I\ms'
_diffrn_standards_number           0
_reflns_Friedel_coverage           0.000
_reflns_Friedel_fraction_full      .
_reflns_Friedel_fraction_max       .
_reflns_number_gt                  3810
_reflns_number_total               4282
_reflns_special_details
;
 Structure factors included contributions from the .fab file.
 
 _reflns_Friedel_fraction is defined as the number of unique
 Friedel pairs measured divided by the number that would be
 possible theoretically, ignoring centric projections and
 systematic absences. Completness statistics refer to single and
 composite reflections containing twin component 1 only.
;
_reflns_threshold_expression       'I > 2\s(I)'
_computing_cell_refinement         'APEX3 Ver. 2018.7-2 (Bruker-AXS, 2018)'
_computing_data_collection         'APEX3 Ver. 2018.7-2 (Bruker-AXS, 2018)'
_computing_data_reduction          'APEX3 Ver. 2018.7-2 (Bruker-AXS, 2018)'
_computing_molecular_graphics      'OLEX2 (Dolomanov et al., 2009)'
_computing_publication_material    'OLEX2 (Dolomanov et al., 2009)'
_computing_structure_refinement    'XL (Sheldrick, 2015b)'
_computing_structure_solution      'XT (Sheldrick, 2015a)'
_refine_diff_density_max           1.892
_refine_diff_density_min           -0.598
_refine_diff_density_rms           0.115
_refine_ls_extinction_coef         .
_refine_ls_extinction_method       none
_refine_ls_goodness_of_fit_ref     1.057
_refine_ls_hydrogen_treatment      constr
_refine_ls_matrix_type             full
_refine_ls_number_parameters       229
_refine_ls_number_reflns           4282
_refine_ls_number_restraints       0
_refine_ls_R_factor_all            0.1041
_refine_ls_R_factor_gt             0.0972
_refine_ls_restrained_S_all        1.057
_refine_ls_shift/su_max            0.000
_refine_ls_shift/su_mean           0.000
_refine_ls_structure_factor_coef   Fsqd
_refine_ls_weighting_details      
 'w=1/[\s^2^(Fo^2^)+(0.1700P)^2^+4.0288P] where P=(Fo^2^+2Fc^2^)/3'
_refine_ls_weighting_scheme        calc
_refine_ls_wR_factor_gt            0.2681
_refine_ls_wR_factor_ref           0.2745
_refine_special_details
;
 Refined as a 2-component twin.
;
_olex2_refinement_description
;
1. Twinned data refinement
 Scales: 0.700(3)
 0.300(3)
2. Fixed Uiso
 At 1.2 times of:
  All C(H) groups, All C(H,H) groups, All N(H,H,H) groups
 At 1.5 times of:
  All C(H,H,H) groups
3.a Secondary CH2 refined with riding coordinates:
 C1(H1D,H1E)
3.b Aromatic/amide H refined with riding coordinates:
 C3(H3), C4(H4), C5(H5), C6(H6), C9(H9), C10(H10), C11(H11), C12(H12),
 C15(H15), C16(H16), C17(H17), C18(H18)
3.c Idealised Me refined as rotating group:
 N1(H1A,H1B,H1C), C21(H21A,H21B,H21C)
;
_atom_sites_solution_hydrogens     geom
_atom_sites_solution_primary       dual
_atom_sites_solution_secondary     ?
loop_
  _atom_site_label
  _atom_site_type_symbol
  _atom_site_fract_x
  _atom_site_fract_y
  _atom_site_fract_z
  _atom_site_U_iso_or_equiv
  _atom_site_adp_type
  _atom_site_occupancy
  _atom_site_site_symmetry_order
  _atom_site_calc_flag
  _atom_site_refinement_flags_posn
  _atom_site_refinement_flags_adp
  _atom_site_refinement_flags_occupancy
  _atom_site_disorder_assembly
  _atom_site_disorder_group
 Cl1 Cl 0.39836(7) 0.4096(2) 0.71954(10) 0.0478(4) Uani 1 1 d . . . . .
 O1 O 0.7138(2) 1.0609(8) 0.3646(3) 0.0565(13) Uani 1 1 d . . . . .
 O2 O 0.83123(19) 1.2010(5) 0.38146(18) 0.0290(7) Uani 1 1 d . . . . .
 N1 N 0.5771(2) 0.4112(8) 0.7416(3) 0.0376(10) Uani 1 1 d . . . . .
 H1A H 0.603379 0.289021 0.760680 0.045 Uiso 1 1 calc GR . . . .
 H1B H 0.527521 0.402941 0.744320 0.045 Uiso 1 1 calc GR . . . .
 H1C H 0.600790 0.529670 0.766143 0.045 Uiso 1 1 calc GR . . . .
 C1 C 0.5764(3) 0.4309(11) 0.6655(4) 0.0479(14) Uani 1 1 d . . . . .
 H1D H 0.557279 0.576833 0.647535 0.057 Uiso 1 1 calc R . . . .
 H1E H 0.540541 0.321444 0.636791 0.057 Uiso 1 1 calc R . . . .
 C2 C 0.6565(3) 0.3969(10) 0.6575(3) 0.0383(12) Uani 1 1 d . . . . .
 C3 C 0.7117(3) 0.5618(9) 0.6745(3) 0.0369(11) Uani 1 1 d . . . . .
 H3 H 0.698958 0.698691 0.690497 0.044 Uiso 1 1 calc R . . . .
 C4 C 0.7861(3) 0.5252(8) 0.6678(3) 0.0292(10) Uani 1 1 d . . . . .
 H4 H 0.823474 0.638326 0.679653 0.035 Uiso 1 1 calc R . . . .
 C5 C 0.6769(3) 0.1981(9) 0.6343(3) 0.0402(12) Uani 1 1 d . . . . .
 H5 H 0.639998 0.083642 0.623132 0.048 Uiso 1 1 calc R . . . .
 C6 C 0.7505(3) 0.1650(9) 0.6273(3) 0.0349(11) Uani 1 1 d . . . . .
 H6 H 0.763051 0.028828 0.610503 0.042 Uiso 1 1 calc R . . . .
 C7 C 0.8063(3) 0.3273(8) 0.6443(2) 0.0280(9) Uani 1 1 d . . . . .
 C8 C 0.8875(3) 0.2863(7) 0.6433(2) 0.0245(9) Uani 1 1 d . . . . .
 C9 C 0.9273(3) 0.1227(7) 0.6869(3) 0.0283(9) Uani 1 1 d . . . . .
 H9 H 0.900961 0.036562 0.712849 0.034 Uiso 1 1 calc R . . . .
 C10 C 1.0052(3) 0.0813(8) 0.6937(3) 0.0330(11) Uani 1 1 d . . . . .
 H10 H 1.031822 -0.031772 0.723806 0.040 Uiso 1 1 calc R . . . .
 C11 C 1.0430(3) 0.2078(7) 0.6557(3) 0.0294(10) Uani 1 1 d . . . . .
 H11 H 1.096486 0.183501 0.660854 0.035 Uiso 1 1 calc R . . . .
 C12 C 1.0043(3) 0.3686(8) 0.6107(3) 0.0311(10) Uani 1 1 d . . . . .
 H12 H 1.030808 0.451320 0.584058 0.037 Uiso 1 1 calc R . . . .
 C13 C 0.9255(3) 0.4114(7) 0.6037(2) 0.0267(9) Uani 1 1 d . . . . .
 C14 C 0.8866(3) 0.5830(7) 0.5525(2) 0.0261(9) Uani 1 1 d . . . . .
 C15 C 0.8112(3) 0.5551(8) 0.5072(2) 0.0292(10) Uani 1 1 d . . . . .
 H15 H 0.783150 0.426314 0.510163 0.035 Uiso 1 1 calc R . . . .
 C16 C 0.7774(3) 0.7145(7) 0.4580(2) 0.0279(10) Uani 1 1 d . . . . .
 H16 H 0.725795 0.695966 0.428688 0.033 Uiso 1 1 calc R . . . .
 C17 C 0.9265(3) 0.7714(7) 0.5453(2) 0.0250(9) Uani 1 1 d . . . . .
 H17 H 0.977743 0.791642 0.575212 0.030 Uiso 1 1 calc R . . . .
 C18 C 0.8935(3) 0.9320(8) 0.4953(2) 0.0271(9) Uani 1 1 d . . . . .
 H18 H 0.921557 1.059906 0.491248 0.032 Uiso 1 1 calc R . . . .
 C19 C 0.8180(3) 0.8990(7) 0.4513(2) 0.0247(9) Uani 1 1 d . . . . .
 C20 C 0.7814(3) 1.0598(8) 0.3947(3) 0.0316(10) Uani 1 1 d . . . . .
 C21 C 0.7989(3) 1.3538(9) 0.3243(3) 0.0350(10) Uani 1 1 d . . . . .
 H21A H 0.780479 1.274757 0.279340 0.053 Uiso 1 1 calc GR . . . .
 H21B H 0.838983 1.458049 0.321125 0.053 Uiso 1 1 calc GR . . . .
 H21C H 0.755538 1.431830 0.333989 0.053 Uiso 1 1 calc GR . . . .

loop_
  _atom_site_aniso_label
  _atom_site_aniso_U_11
  _atom_site_aniso_U_22
  _atom_site_aniso_U_33
  _atom_site_aniso_U_23
  _atom_site_aniso_U_13
  _atom_site_aniso_U_12
 Cl1 0.0306(6) 0.0309(6) 0.0863(11) 0.0030(7) 0.0237(8) 0.0054(5)
 O1 0.035(2) 0.056(3) 0.065(3) 0.026(2) -0.008(2) -0.0120(19)
 O2 0.0325(17) 0.0242(16) 0.0333(17) 0.0062(13) 0.0143(14) 0.0038(13)
 N1 0.0254(19) 0.039(2) 0.054(3) -0.001(2) 0.020(2) 0.0045(18)
 C1 0.028(2) 0.058(4) 0.059(4) 0.004(3) 0.015(3) 0.008(2)
 C2 0.020(2) 0.054(3) 0.042(3) 0.003(2) 0.010(2) 0.004(2)
 C3 0.031(2) 0.038(3) 0.043(3) 0.002(2) 0.015(2) 0.008(2)
 C4 0.027(2) 0.023(2) 0.042(3) -0.0015(19) 0.016(2) -0.0011(18)
 C5 0.039(3) 0.041(3) 0.045(3) 0.001(2) 0.018(2) -0.008(2)
 C6 0.037(3) 0.031(2) 0.038(3) 0.001(2) 0.012(2) -0.003(2)
 C7 0.029(2) 0.028(2) 0.030(2) 0.0045(18) 0.0133(19) 0.0017(18)
 C8 0.031(2) 0.022(2) 0.023(2) -0.0050(16) 0.0120(18) 0.0010(17)
 C9 0.036(2) 0.017(2) 0.033(2) -0.0028(18) 0.012(2) -0.0010(18)
 C10 0.039(3) 0.027(2) 0.033(2) -0.0062(19) 0.011(2) 0.000(2)
 C11 0.036(2) 0.019(2) 0.034(2) -0.0033(18) 0.010(2) 0.0071(18)
 C12 0.031(2) 0.035(3) 0.030(2) -0.005(2) 0.013(2) 0.0002(19)
 C13 0.031(2) 0.027(2) 0.026(2) -0.0039(17) 0.0134(19) 0.0050(17)
 C14 0.030(2) 0.028(2) 0.024(2) -0.0067(18) 0.0135(18) -0.0024(18)
 C15 0.034(2) 0.027(2) 0.028(2) 0.0014(18) 0.0113(19) -0.0069(19)
 C16 0.026(2) 0.027(2) 0.029(2) -0.0041(18) 0.0062(18) -0.0013(17)
 C17 0.023(2) 0.029(2) 0.026(2) -0.0059(17) 0.0114(17) -0.0024(17)
 C18 0.026(2) 0.028(2) 0.029(2) -0.0005(18) 0.0114(19) 0.0008(17)
 C19 0.029(2) 0.019(2) 0.028(2) 0.0002(17) 0.0113(18) 0.0014(16)
 C20 0.031(2) 0.031(2) 0.035(2) 0.001(2) 0.012(2) -0.0021(19)
 C21 0.037(2) 0.035(2) 0.035(2) 0.009(2) 0.013(2) 0.002(2)

_geom_special_details
;
 All esds (except the esd in the dihedral angle between two l.s. planes)
 are estimated using the full covariance matrix.  The cell esds are taken
 into account individually in the estimation of esds in distances, angles
 and torsion angles; correlations between esds in cell parameters are only
 used when they are defined by crystal symmetry.  An approximate (isotropic)
 treatment of cell esds is used for estimating esds involving l.s. planes.
;
loop_
  _geom_bond_atom_site_label_1
  _geom_bond_atom_site_label_2
  _geom_bond_distance
  _geom_bond_site_symmetry_2
  _geom_bond_publ_flag
 O1 C20 1.192(7) . ?
 O2 C20 1.326(6) . ?
 O2 C21 1.452(6) . ?
 N1 H1A 0.9100 . ?
 N1 H1B 0.9100 . ?
 N1 H1C 0.9100 . ?
 N1 C1 1.495(8) . ?
 C1 H1D 0.9900 . ?
 C1 H1E 0.9900 . ?
 C1 C2 1.509(7) . ?
 C2 C3 1.392(8) . ?
 C2 C5 1.391(8) . ?
 C3 H3 0.9500 . ?
 C3 C4 1.399(7) . ?
 C4 H4 0.9500 . ?
 C4 C7 1.387(7) . ?
 C5 H5 0.9500 . ?
 C5 C6 1.385(8) . ?
 C6 H6 0.9500 . ?
 C6 C7 1.387(7) . ?
 C7 C8 1.490(6) . ?
 C8 C9 1.382(7) . ?
 C8 C13 1.403(6) . ?
 C9 H9 0.9500 . ?
 C9 C10 1.393(7) . ?
 C10 H10 0.9500 . ?
 C10 C11 1.383(7) . ?
 C11 H11 0.9500 . ?
 C11 C12 1.377(7) . ?
 C12 H12 0.9500 . ?
 C12 C13 1.409(6) . ?
 C13 C14 1.488(7) . ?
 C14 C15 1.405(7) . ?
 C14 C17 1.392(6) . ?
 C15 H15 0.9500 . ?
 C15 C16 1.389(7) . ?
 C16 H16 0.9500 . ?
 C16 C19 1.376(6) . ?
 C17 H17 0.9500 . ?
 C17 C18 1.400(7) . ?
 C18 H18 0.9500 . ?
 C18 C19 1.402(6) . ?
 C19 C20 1.493(7) . ?
 C21 H21A 0.9800 . ?
 C21 H21B 0.9800 . ?
 C21 H21C 0.9800 . ?

loop_
  _geom_angle_atom_site_label_1
  _geom_angle_atom_site_label_2
  _geom_angle_atom_site_label_3
  _geom_angle
  _geom_angle_site_symmetry_1
  _geom_angle_site_symmetry_3
  _geom_angle_publ_flag
 C20 O2 C21 115.6(4) . . ?
 H1A N1 H1B 109.5 . . ?
 H1A N1 H1C 109.5 . . ?
 H1B N1 H1C 109.5 . . ?
 C1 N1 H1A 109.5 . . ?
 C1 N1 H1B 109.5 . . ?
 C1 N1 H1C 109.5 . . ?
 N1 C1 H1D 109.5 . . ?
 N1 C1 H1E 109.5 . . ?
 N1 C1 C2 110.9(5) . . ?
 H1D C1 H1E 108.0 . . ?
 C2 C1 H1D 109.5 . . ?
 C2 C1 H1E 109.5 . . ?
 C3 C2 C1 120.8(5) . . ?
 C5 C2 C1 120.4(5) . . ?
 C5 C2 C3 118.8(5) . . ?
 C2 C3 H3 120.1 . . ?
 C2 C3 C4 119.8(5) . . ?
 C4 C3 H3 120.1 . . ?
 C3 C4 H4 119.3 . . ?
 C7 C4 C3 121.4(5) . . ?
 C7 C4 H4 119.3 . . ?
 C2 C5 H5 119.6 . . ?
 C6 C5 C2 120.8(5) . . ?
 C6 C5 H5 119.6 . . ?
 C5 C6 H6 119.5 . . ?
 C5 C6 C7 121.1(5) . . ?
 C7 C6 H6 119.5 . . ?
 C4 C7 C8 120.3(4) . . ?
 C6 C7 C4 118.2(4) . . ?
 C6 C7 C8 121.3(4) . . ?
 C9 C8 C7 116.9(4) . . ?
 C9 C8 C13 119.7(4) . . ?
 C13 C8 C7 123.4(4) . . ?
 C8 C9 H9 119.3 . . ?
 C8 C9 C10 121.4(4) . . ?
 C10 C9 H9 119.3 . . ?
 C9 C10 H10 120.6 . . ?
 C11 C10 C9 118.8(5) . . ?
 C11 C10 H10 120.6 . . ?
 C10 C11 H11 119.6 . . ?
 C12 C11 C10 120.8(5) . . ?
 C12 C11 H11 119.6 . . ?
 C11 C12 H12 119.7 . . ?
 C11 C12 C13 120.6(5) . . ?
 C13 C12 H12 119.7 . . ?
 C8 C13 C12 118.6(4) . . ?
 C8 C13 C14 123.6(4) . . ?
 C12 C13 C14 117.7(4) . . ?
 C15 C14 C13 121.7(4) . . ?
 C17 C14 C13 120.1(4) . . ?
 C17 C14 C15 118.1(4) . . ?
 C14 C15 H15 119.8 . . ?
 C16 C15 C14 120.4(4) . . ?
 C16 C15 H15 119.8 . . ?
 C15 C16 H16 119.7 . . ?
 C19 C16 C15 120.6(4) . . ?
 C19 C16 H16 119.7 . . ?
 C14 C17 H17 119.0 . . ?
 C14 C17 C18 122.1(4) . . ?
 C18 C17 H17 119.0 . . ?
 C17 C18 H18 120.9 . . ?
 C17 C18 C19 118.2(4) . . ?
 C19 C18 H18 120.9 . . ?
 C16 C19 C18 120.6(4) . . ?
 C16 C19 C20 118.9(4) . . ?
 C18 C19 C20 120.4(4) . . ?
 O1 C20 O2 123.4(5) . . ?
 O1 C20 C19 122.9(5) . . ?
 O2 C20 C19 113.6(4) . . ?
 O2 C21 H21A 109.5 . . ?
 O2 C21 H21B 109.5 . . ?
 O2 C21 H21C 109.5 . . ?
 H21A C21 H21B 109.5 . . ?
 H21A C21 H21C 109.5 . . ?
 H21B C21 H21C 109.5 . . ?

loop_
  _geom_hbond_atom_site_label_D
  _geom_hbond_atom_site_label_H
  _geom_hbond_atom_site_label_A
  _geom_hbond_distance_DH
  _geom_hbond_distance_HA
  _geom_hbond_distance_DA
  _geom_hbond_angle_DHA
  _geom_hbond_site_symmetry_A
  _geom_hbond_publ_flag
 N1 H1A Cl1 0.91 2.37 3.179(5) 148.4 2_646 yes
 N1 H1B Cl1 0.91 2.24 3.121(4) 164.2 . yes
 N1 H1C Cl1 0.91 2.35 3.160(5) 147.6 2_656 yes

loop_
  _geom_torsion_atom_site_label_1
  _geom_torsion_atom_site_label_2
  _geom_torsion_atom_site_label_3
  _geom_torsion_atom_site_label_4
  _geom_torsion
  _geom_torsion_site_symmetry_1
  _geom_torsion_site_symmetry_2
  _geom_torsion_site_symmetry_3
  _geom_torsion_site_symmetry_4
  _geom_torsion_publ_flag
 N1 C1 C2 C3 -78.1(7) . . . . ?
 N1 C1 C2 C5 100.6(7) . . . . ?
 C1 C2 C3 C4 178.8(5) . . . . ?
 C1 C2 C5 C6 -179.5(6) . . . . ?
 C2 C3 C4 C7 0.2(8) . . . . ?
 C2 C5 C6 C7 1.2(8) . . . . ?
 C3 C2 C5 C6 -0.8(9) . . . . ?
 C3 C4 C7 C6 0.1(7) . . . . ?
 C3 C4 C7 C8 -175.0(5) . . . . ?
 C4 C7 C8 C9 116.5(5) . . . . ?
 C4 C7 C8 C13 -60.1(6) . . . . ?
 C5 C2 C3 C4 0.1(8) . . . . ?
 C5 C6 C7 C4 -0.8(8) . . . . ?
 C5 C6 C7 C8 174.3(5) . . . . ?
 C6 C7 C8 C9 -58.5(6) . . . . ?
 C6 C7 C8 C13 124.9(5) . . . . ?
 C7 C8 C9 C10 -175.5(4) . . . . ?
 C7 C8 C13 C12 175.4(4) . . . . ?
 C7 C8 C13 C14 -6.8(7) . . . . ?
 C8 C9 C10 C11 0.1(7) . . . . ?
 C8 C13 C14 C15 -40.1(6) . . . . ?
 C8 C13 C14 C17 144.0(4) . . . . ?
 C9 C8 C13 C12 -1.1(6) . . . . ?
 C9 C8 C13 C14 176.7(4) . . . . ?
 C9 C10 C11 C12 -1.6(7) . . . . ?
 C10 C11 C12 C13 1.7(7) . . . . ?
 C11 C12 C13 C8 -0.3(7) . . . . ?
 C11 C12 C13 C14 -178.3(4) . . . . ?
 C12 C13 C14 C15 137.7(5) . . . . ?
 C12 C13 C14 C17 -38.2(6) . . . . ?
 C13 C8 C9 C10 1.3(7) . . . . ?
 C13 C14 C15 C16 -177.5(4) . . . . ?
 C13 C14 C17 C18 176.7(4) . . . . ?
 C14 C15 C16 C19 2.0(7) . . . . ?
 C14 C17 C18 C19 -0.3(6) . . . . ?
 C15 C14 C17 C18 0.7(6) . . . . ?
 C15 C16 C19 C18 -1.6(7) . . . . ?
 C15 C16 C19 C20 176.1(4) . . . . ?
 C16 C19 C20 O1 16.0(8) . . . . ?
 C16 C19 C20 O2 -164.3(4) . . . . ?
 C17 C14 C15 C16 -1.6(6) . . . . ?
 C17 C18 C19 C16 0.7(6) . . . . ?
 C17 C18 C19 C20 -177.0(4) . . . . ?
 C18 C19 C20 O1 -166.2(5) . . . . ?
 C18 C19 C20 O2 13.5(6) . . . . ?
 C21 O2 C20 O1 -3.2(7) . . . . ?
 C21 O2 C20 C19 177.1(4) . . . . ?

_shelx_res_file
;
TITL Gellman186_twin040_a.res in P2(1)/c
    gellman186_sq.res
    created by SHELXL-2018/3 at 11:57:04 on 16-May-2019
REM Old TITL Gellman186_twin040 in P2(1)/c
REM SHELXT solution in P2(1)/c
REM R1 0.243, Rweak 0.022, Alpha 0.055, Orientation as input
REM Formula found by SHELXT: C21 N O2 Cl
CELL 0.71073 17.9966 6.1519 19.6358 90 106.549 90
ZERR 4 0.0058 0.0018 0.006 0 0.011 0
LATT 1
SYMM -X,0.5+Y,0.5-Z
SFAC C H Cl N O
UNIT 84 80 4 4 8
EQIV $1 1-X,-0.5+Y,1.5-Z
EQIV $2 1-X,0.5+Y,1.5-Z

L.S. 20 0 26
PLAN  7
SIZE 0.08 0.1 0.1
TEMP -173.16
HTAB N1 Cl1_$1
HTAB N1 Cl1
HTAB N1 Cl1_$2
BOND $H
CONF
ABIN
fmap 2
acta 50
REM <olex2.extras>
REM <HklSrc "%.\\Gellman186_sq.hkl">
REM </olex2.extras>

WGHT    0.170000    4.028800
BASF   0.29983
FVAR       0.67950
CL1   3    0.398361    0.409617    0.719540    11.00000    0.03058    0.03094 =
         0.08630    0.00303    0.02365    0.00536
O1    5    0.713784    1.060937    0.364631    11.00000    0.03468    0.05634 =
         0.06473    0.02597   -0.00820   -0.01204
O2    5    0.831235    1.201001    0.381464    11.00000    0.03246    0.02420 =
         0.03327    0.00618    0.01430    0.00375
N1    4    0.577086    0.411200    0.741614    11.00000    0.02542    0.03899 =
         0.05359   -0.00120    0.01975    0.00455
AFIX 137
H1A   2    0.603379    0.289021    0.760680    11.00000   -1.20000
H1B   2    0.527521    0.402941    0.744320    11.00000   -1.20000
H1C   2    0.600790    0.529670    0.766143    11.00000   -1.20000
AFIX   0
C1    1    0.576378    0.430865    0.665523    11.00000    0.02806    0.05811 =
         0.05913    0.00383    0.01498    0.00823
AFIX  23
H1D   2    0.557279    0.576833    0.647535    11.00000   -1.20000
H1E   2    0.540541    0.321444    0.636791    11.00000   -1.20000
AFIX   0
C2    1    0.656494    0.396936    0.657484    11.00000    0.02000    0.05393 =
         0.04179    0.00335    0.01015    0.00404
C3    1    0.711723    0.561791    0.674457    11.00000    0.03144    0.03843 =
         0.04333    0.00229    0.01463    0.00811
AFIX  43
H3    2    0.698958    0.698691    0.690497    11.00000   -1.20000
AFIX   0
C4    1    0.786056    0.525219    0.667818    11.00000    0.02694    0.02291 =
         0.04166   -0.00151    0.01586   -0.00108
AFIX  43
H4    2    0.823474    0.638326    0.679653    11.00000   -1.20000
AFIX   0
C5    1    0.676938    0.198068    0.634289    11.00000    0.03852    0.04090 =
         0.04495    0.00141    0.01799   -0.00782
AFIX  43
H5    2    0.639998    0.083642    0.623132    11.00000   -1.20000
AFIX   0
C6    1    0.750545    0.164950    0.627269    11.00000    0.03725    0.03057 =
         0.03794    0.00077    0.01236   -0.00270
AFIX  43
H6    2    0.763051    0.028828    0.610503    11.00000   -1.20000
AFIX   0
C7    1    0.806285    0.327251    0.644316    11.00000    0.02860    0.02830 =
         0.03005    0.00448    0.01331    0.00168
C8    1    0.887538    0.286273    0.643284    11.00000    0.03078    0.02223 =
         0.02329   -0.00499    0.01201    0.00097
C9    1    0.927303    0.122690    0.686908    11.00000    0.03632    0.01722 =
         0.03308   -0.00279    0.01242   -0.00101
AFIX  43
H9    2    0.900961    0.036562    0.712849    11.00000   -1.20000
AFIX   0
C10   1    1.005180    0.081330    0.693672    11.00000    0.03917    0.02708 =
         0.03327   -0.00622    0.01101    0.00031
AFIX  43
H10   2    1.031822   -0.031772    0.723806    11.00000   -1.20000
AFIX   0
C11   1    1.043045    0.207833    0.655743    11.00000    0.03557    0.01863 =
         0.03420   -0.00330    0.01038    0.00711
AFIX  43
H11   2    1.096486    0.183501    0.660854    11.00000   -1.20000
AFIX   0
C12   1    1.004253    0.368610    0.610665    11.00000    0.03073    0.03535 =
         0.02970   -0.00457    0.01258    0.00021
AFIX  43
H12   2    1.030808    0.451320    0.584058    11.00000   -1.20000
AFIX   0
C13   1    0.925534    0.411438    0.603682    11.00000    0.03084    0.02669 =
         0.02598   -0.00388    0.01338    0.00498
C14   1    0.886581    0.583045    0.552482    11.00000    0.02983    0.02798 =
         0.02413   -0.00665    0.01352   -0.00241
C15   1    0.811190    0.555070    0.507157    11.00000    0.03412    0.02692 =
         0.02814    0.00143    0.01133   -0.00691
AFIX  43
H15   2    0.783150    0.426314    0.510163    11.00000   -1.20000
AFIX   0
C16   1    0.777413    0.714492    0.457991    11.00000    0.02631    0.02734 =
         0.02891   -0.00408    0.00622   -0.00135
AFIX  43
H16   2    0.725795    0.695966    0.428688    11.00000   -1.20000
AFIX   0
C17   1    0.926507    0.771408    0.545274    11.00000    0.02333    0.02884 =
         0.02566   -0.00594    0.01136   -0.00242
AFIX  43
H17   2    0.977743    0.791642    0.575212    11.00000   -1.20000
AFIX   0
C18   1    0.893517    0.932027    0.495273    11.00000    0.02629    0.02825 =
         0.02881   -0.00048    0.01139    0.00080
AFIX  43
H18   2    0.921557    1.059906    0.491248    11.00000   -1.20000
AFIX   0
C19   1    0.817991    0.899025    0.451313    11.00000    0.02863    0.01911 =
         0.02822    0.00016    0.01128    0.00139
C20   1    0.781433    1.059780    0.394698    11.00000    0.03076    0.03092 =
         0.03484    0.00083    0.01228   -0.00205
C21   1    0.798933    1.353832    0.324336    11.00000    0.03678    0.03499 =
         0.03497    0.00883    0.01282    0.00214
AFIX 137
H21A  2    0.780479    1.274757    0.279340    11.00000   -1.50000
H21B  2    0.838983    1.458049    0.321125    11.00000   -1.50000
H21C  2    0.755538    1.431830    0.333989    11.00000   -1.50000
AFIX   0
HKLF 5




REM  Gellman186_twin040_a.res in P2(1)/c
REM wR2 = 0.274458, GooF = S = 1.05693, Restrained GooF = 1.05693 for all data
REM R1 = 0.097197 for 3810 Fo > 4sig(Fo) and 0.104098 for all 4282 data
REM 229 parameters refined using 0 restraints

END

WGHT      0.1354      3.9448

REM Highest difference peak  1.892,  deepest hole -0.598,  1-sigma level  0.115
Q1    1   0.4058  0.5501  0.7319  11.00000  0.05    1.89
Q2    1   0.8322  0.8089  0.3785  11.00000  0.05    0.82
Q3    1   0.7205  0.9359  0.3407  11.00000  0.05    0.63
Q4    1   1.0406  0.7997  0.6570  11.00000  0.05    0.55
Q5    1   0.9244 -0.1486  0.6866  11.00000  0.05    0.55
Q6    1   0.8086  0.6540  0.6436  11.00000  0.05    0.54
Q7    1   1.0054  0.6601  0.6121  11.00000  0.05    0.54
;
_shelx_res_checksum                2416
_shelx_hkl_file
;
   1   0   0 447.578 33.5281  -2
   1   0   0 447.578 33.5281   1
   2   0   0 64.6177 3.03363  -2
   2   0   0 64.6177 3.03363   1
   3   0   0 1018.36 42.5411  -2
   3   0   0 1018.36 42.5411   1
   4   0   0 160.293 8.26770  -2
   4   0   0 160.293 8.26770   1
   5   0   0 8012.13 334.589  -2
   5   0   0 8012.13 334.589   1
   6   0   0 3366.84 140.601  -2
   6   0   0 3366.84 140.601   1
   7   0   0 15.9377 1.29782  -2
   7   0   0 15.9377 1.29782   1
   8   0   0 1540.26 70.8472  -2
   8   0   0 1540.26 70.8472   1
   9   0   0 28.5390 2.01447  -2
   9   0   0 28.5390 2.01447   1
  10   0   0 4898.60 224.917  -2
  10   0   0 4898.60 224.917   1
  11   0   0 12.5501 1.41441  -2
  11   0   0 12.5501 1.41441   1
  12   0   0 329.978 15.6145  -2
  12   0   0 329.978 15.6145   1
  13   0   0 87.9687 4.69890  -2
  13   0   0 87.9687 4.69890   1
  14   0   0 33.9033 2.49490  -2
  14   0   0 33.9033 2.49490   1
  15   0   0 350.676 18.7655  -2
  15   0   0 350.676 18.7655   1
  16   0   0 132.120 8.93712  -2
  16   0   0 132.120 8.93712   1
  17   0   0 355.929 27.8685  -2
  17   0   0 355.929 27.8685   1
  18   0   0 190.158 15.7659  -2
  18   0   0 190.158 15.7659   1
  19   0   0 59.7520 6.78887  -2
  19   0   0 59.7520 6.78887   1
  20   0   0 25.2115 7.35701  -2
  20   0   0 25.2115 7.35701   1
  21   0   0 30.8273 7.54314  -2
  21   0   0 30.8273 7.54314   1
   0   1   0 -0.1943 0.43928  -2
   0   1   0 -0.1943 0.43928   1
   1   1   0 1090.56 35.4234  -2
   1   1   0 1090.56 35.4234   1
   2   1   0 6.93078 0.52772  -2
   2   1   0 6.93078 0.52772   1
   3   1   0 410.287 14.7748  -2
   3   1   0 410.287 14.7748   1
   4   1   0 198.380 6.86638  -2
   4   1   0 198.380 6.86638   1
   5   1   0 355.584 11.0975  -2
   5   1   0 355.584 11.0975   1
   6   1   0 257.584 8.10883  -2
   6   1   0 257.584 8.10883   1
   7   1   0 239.586 7.58690  -2
   7   1   0 239.586 7.58690   1
   8   1   0 224.631 7.13738  -2
   8   1   0 224.631 7.13738   1
   9   1   0 57.4389 2.07518  -2
   9   1   0 57.4389 2.07518   1
  10   1   0 0.95791 0.68012  -2
  10   1   0 0.95791 0.68012   1
  11   1   0 431.098 13.5643  -2
  11   1   0 431.098 13.5643   1
  12   1   0 101.006 3.68049  -2
  12   1   0 101.006 3.68049   1
  13   1   0 2.12836 0.88143  -2
  13   1   0 2.12836 0.88143   1
  14   1   0 9.31215 1.12364  -2
  14   1   0 9.31215 1.12364   1
  15   1   0 5.17957 1.35511  -2
  15   1   0 5.17957 1.35511   1
  16   1   0 13.8858 2.01465  -2
  16   1   0 13.8858 2.01465   1
  17   1   0 89.6601 5.93897  -2
  17   1   0 89.6601 5.93897   1
  18   1   0 48.4915 4.15654  -2
  18   1   0 48.4915 4.15654   1
  19   1   0 0.27039 3.37658  -2
  19   1   0 0.27039 3.37658   1
  20   1   0 1.15021 3.33754  -2
  20   1   0 1.15021 3.33754   1
  21   1   0 0.44451 3.92594  -2
  21   1   0 0.44451 3.92594   1
   0   2   0 1576.31 72.4774  -2
   0   2   0 1576.31 72.4774   1
   1   2   0 1553.57 48.3659  -2
   1   2   0 1553.57 48.3659   1
   2   2   0 38.1368 1.51215  -2
   2   2   0 38.1368 1.51215   1
   3   2   0 56.9902 2.09226  -2
   3   2   0 56.9902 2.09226   1
   4   2   0 35.9720 1.46888  -2
   4   2   0 35.9720 1.46888   1
   5   2   0 433.091 14.1919  -2
   5   2   0 433.091 14.1919   1
   6   2   0 686.662 22.4438  -2
   6   2   0 686.662 22.4438   1
   7   2   0 483.510 15.8545  -2
   7   2   0 483.510 15.8545   1
   8   2   0 34.5214 1.43882  -2
   8   2   0 34.5214 1.43882   1
   9   2   0 3.60753 0.77907  -2
   9   2   0 3.60753 0.77907   1
  10   2   0 788.558 24.6132  -2
  10   2   0 788.558 24.6132   1
  11   2   0 5.57179 0.86543  -2
  11   2   0 5.57179 0.86543   1
  12   2   0 33.3020 1.60779  -2
  12   2   0 33.3020 1.60779   1
  13   2   0 38.7053 1.99993  -2
  13   2   0 38.7053 1.99993   1
  14   2   0 100.880 4.02670  -2
  14   2   0 100.880 4.02670   1
  15   2   0 31.1118 1.92156  -2
  15   2   0 31.1118 1.92156   1
  16   2   0 97.6798 5.03942  -2
  16   2   0 97.6798 5.03942   1
  17   2   0 34.8741 3.53761  -2
  17   2   0 34.8741 3.53761   1
  18   2   0 -1.7348 2.97615  -2
  18   2   0 -1.7348 2.97615   1
  19   2   0 14.9834 3.73331  -2
  19   2   0 14.9834 3.73331   1
  20   2   0 9.57075 3.79985  -2
  20   2   0 9.57075 3.79985   1
   0   3   0 5.19369 1.06194  -2
   0   3   0 5.19369 1.06194   1
   1   3   0 85.6528 2.88494  -2
   1   3   0 85.6528 2.88494   1
   2   3   0 36.1785 1.51046  -2
   2   3   0 36.1785 1.51046   1
   3   3   0 67.6356 2.49870  -2
   3   3   0 67.6356 2.49870   1
   4   3   0 772.021 25.2387  -2
   4   3   0 772.021 25.2387   1
   5   3   0 1633.63 53.1884  -2
   5   3   0 1633.63 53.1884   1
   6   3   0 31.6786 1.49847  -2
   6   3   0 31.6786 1.49847   1
   7   3   0 191.372 6.53073  -2
   7   3   0 191.372 6.53073   1
   8   3   0 409.740 13.6007  -2
   8   3   0 409.740 13.6007   1
   9   3   0 4.51663 0.92976  -2
   9   3   0 4.51663 0.92976   1
  10   3   0 10.5152 1.15972  -2
  10   3   0 10.5152 1.15972   1
  11   3   0 947.494 32.9198  -2
  11   3   0 947.494 32.9198   1
  12   3   0 38.2528 2.04800  -2
  12   3   0 38.2528 2.04800   1
  13   3   0 721.853 25.2184  -2
  13   3   0 721.853 25.2184   1
  14   3   0 33.2521 2.02360  -2
  14   3   0 33.2521 2.02360   1
  15   3   0 446.575 16.8627  -2
  15   3   0 446.575 16.8627   1
  16   3   0 12.6037 2.41395  -2
  16   3   0 12.6037 2.41395   1
  17   3   0 161.168 11.4633  -2
  17   3   0 161.168 11.4633   1
  18   3   0 72.9871 6.60662  -2
  18   3   0 72.9871 6.60662   1
  19   3   0 3.81471 3.29127  -2
  19   3   0 3.81471 3.29127   1
   0   4   0 762.087 35.4536  -2
   0   4   0 762.087 35.4536   1
   1   4   0 165.216 5.98909  -2
   1   4   0 165.216 5.98909   1
   2   4   0 117.144 4.37423  -2
   2   4   0 117.144 4.37423   1
   3   4   0 82.0664 3.19662  -2
   3   4   0 82.0664 3.19662   1
   4   4   0 83.0926 3.12797  -2
   4   4   0 83.0926 3.12797   1
   5   4   0 276.812 10.4761  -2
   5   4   0 276.812 10.4761   1
   6   4   0 73.0175 3.20426  -2
   6   4   0 73.0175 3.20426   1
   7   4   0 39.0266 2.16034  -2
   7   4   0 39.0266 2.16034   1
   8   4   0 15.8314 1.38363  -2
   8   4   0 15.8314 1.38363   1
   9   4   0 28.8757 1.86900  -2
   9   4   0 28.8757 1.86900   1
  10   4   0 167.506 6.60736  -2
  10   4   0 167.506 6.60736   1
  11   4   0 147.680 5.90420  -2
  11   4   0 147.680 5.90420   1
  12   4   0 110.177 4.40218  -2
  12   4   0 110.177 4.40218   1
  13   4   0 3.07944 1.34517  -2
  13   4   0 3.07944 1.34517   1
  14   4   0 7.74747 1.58265  -2
  14   4   0 7.74747 1.58265   1
  15   4   0 138.727 5.76700  -2
  15   4   0 138.727 5.76700   1
  16   4   0 37.8242 4.34660  -2
  16   4   0 37.8242 4.34660   1
  17   4   0 7.38936 4.16798  -2
  17   4   0 7.38936 4.16798   1
  18   4   0 7.76684 4.39554  -2
  18   4   0 7.76684 4.39554   1
   0   5   0 -0.5948 2.01283  -2
   0   5   0 -0.5948 2.01283   1
   1   5   0 245.101 10.7464  -2
   1   5   0 245.101 10.7464   1
   2   5   0 78.6479 4.11307  -2
   2   5   0 78.6479 4.11307   1
   3   5   0 4.76613 1.57577  -2
   3   5   0 4.76613 1.57577   1
   4   5   0 13.3953 1.79198  -2
   4   5   0 13.3953 1.79198   1
   5   5   0 6.73730 1.65781  -2
   5   5   0 6.73730 1.65781   1
   6   5   0 80.9869 4.22956  -2
   6   5   0 80.9869 4.22956   1
   7   5   0 2.80600 1.64535  -2
   7   5   0 2.80600 1.64535   1
   8   5   0 18.9592 2.08926  -2
   8   5   0 18.9592 2.08926   1
   9   5   0 54.5701 3.09647  -2
   9   5   0 54.5701 3.09647   1
  10   5   0 22.6323 2.05256  -2
  10   5   0 22.6323 2.05256   1
  11   5   0 22.7568 2.20152  -2
  11   5   0 22.7568 2.20152   1
  12   5   0 3.14240 1.69026  -2
  12   5   0 3.14240 1.69026   1
  13   5   0 4.85677 1.61682  -2
  13   5   0 4.85677 1.61682   1
  14   5   0 35.4184 3.28105  -2
  14   5   0 35.4184 3.28105   1
  15   5   0 38.2760 4.61591  -2
  15   5   0 38.2760 4.61591   1
  16   5   0 7.65461 3.30136  -2
  16   5   0 7.65461 3.30136   1
   0   6   0 746.915 44.6657  -2
   0   6   0 746.915 44.6657   1
   1   6   0 21.3129 2.27574  -2
   1   6   0 21.3129 2.27574   1
   2   6   0 134.141 6.48699  -2
   2   6   0 134.141 6.48699   1
   3   6   0 61.2868 3.74300  -2
   3   6   0 61.2868 3.74300   1
   4   6   0 226.671 10.2235  -2
   4   6   0 226.671 10.2235   1
   5   6   0 28.4246 2.56196  -2
   5   6   0 28.4246 2.56196   1
   6   6   0 195.838 8.98789  -2
   6   6   0 195.838 8.98789   1
   7   6   0 40.2711 3.04337  -2
   7   6   0 40.2711 3.04337   1
   8   6   0 1.87557 1.92506  -2
   8   6   0 1.87557 1.92506   1
   9   6   0 30.0518 2.76300  -2
   9   6   0 30.0518 2.76300   1
  10   6   0 181.290 8.46415  -2
  10   6   0 181.290 8.46415   1
  11   6   0 13.2096 2.33203  -2
  11   6   0 13.2096 2.33203   1
  12   6   0 18.8004 2.74506  -2
  12   6   0 18.8004 2.74506   1
  13   6   0 8.96022 3.07866  -2
  13   6   0 8.96022 3.07866   1
   0   7   0 3.86087 2.98120  -2
   0   7   0 3.86087 2.98120   1
   1   7   0 45.4358 3.36496  -2
   1   7   0 45.4358 3.36496   1
   2   7   0 14.3025 2.36793  -2
   2   7   0 14.3025 2.36793   1
   3   7   0 -0.8429 2.02378  -2
   3   7   0 -0.8429 2.02378   1
   4   7   0 54.9919 3.73273  -2
   4   7   0 54.9919 3.73273   1
   5   7   0 26.5588 2.76779  -2
   5   7   0 26.5588 2.76779   1
   6   7   0 21.9017 2.73515  -2
   6   7   0 21.9017 2.73515   1
   7   7   0 23.3588 2.74871  -2
   7   7   0 23.3588 2.74871   1
   8   7   0 54.0837 3.85264  -2
   8   7   0 54.0837 3.85264   1
   9   7   0 4.47934 3.26481  -2
   9   7   0 4.47934 3.26481   1
 -21   0   1 3.52923 5.27126   1
 -20   0   1 -4.7919 4.55461   1
 -19   0   1 -3.0690 2.98512   1
 -18   0   1 -0.6079 2.95065   1
 -17   0   1 1.22714 1.98057   1
 -16   0   1 -0.2752 1.60473   1
 -15   0   1 -1.0366 1.45544   1
 -14   0   1 -1.2714 1.20011   1
 -13   0   1 -0.0183 1.13890   1
 -12   0   1 -1.7262 1.01889   1
 -11   0   1 0.93407 1.01702   1
 -10   0   1 -0.6029 0.93759   1
  -9   0   1 -0.6858 0.85984   1
  -8   0   1 0.55111 0.67569   1
  -7   0   1 0.11392 0.61273   1
  -6   0   1 -0.0356 0.59477   1
  -5   0   1 -0.2857 0.56096   1
  -4   0   1 -0.1091 0.51342   1
  -3   0   1 0.10400 0.40092   1
  -2   0   1 -0.3461 0.30293   1
  -1   0   1 0.03996 0.18921   1
   0   0   1 0.00928 0.19181   1
   1   0   1 -0.1571 0.29713   1
   2   0   1 0.01997 0.35438   1
   3   0   1 -0.3749 0.49252   1
   4   0   1 -0.2439 0.56750   1
   5   0   1 -1.2326 0.60932   1
   6   0   1 -0.3506 0.66354   1
   7   0   1 -0.7392 0.67654   1
   8   0   1 0.11312 0.76643   1
   9   0   1 0.60558 0.85508   1
  10   0   1 -0.8115 0.88950   1
  11   0   1 0.11203 0.97873   1
  12   0   1 -0.3976 1.06153   1
  13   0   1 -0.5989 1.10374   1
  14   0   1 -0.1647 1.21278   1
  15   0   1 -0.1381 1.54377   1
  16   0   1 0.88958 2.72749   1
  17   0   1 -1.0572 2.71474   1
  18   0   1 2.07184 3.04662   1
  19   0   1 3.93918 3.36448   1
  20   0   1 -5.3545 3.13745   1
  21   0   1 -1.1634 5.15553   1
 -21   1   1 20.6500 4.69542   1
 -20   1   1 4.09104 2.88375   1
 -19   1   1 88.7255 7.15192   1
 -18   1   1 18.8571 2.67035   1
 -17   1   1 24.2556 2.24010   1
 -16   1   1 278.325 11.4554   1
 -15   1   1 14.9199 1.32947   1
 -14   1   1 2.06616 0.87079   1
 -13   1   1 246.408 7.91652   1
 -12   1   1 614.603 20.1901   1
 -11   1   1 0.99311 0.64875   1
 -10   1   1 3.97966 0.67244   1
  -9   1   1 164.289 5.32188   1
  -8   1   1 37.3232 1.58222   1
  -7   1   1 1213.04 44.4741   1
  -6   1   1 707.813 23.1280   1
  -5   1   1 51.5210 1.78546   1
  -4   1   1 124.738 4.17867   1
  -3   1   1 353.081 12.9223   1
  -2   1   1 36.9789 1.43542   1
  -1   1   1 1367.56 52.9613   1
   0   1   1 128.463 4.72532   1
   1   1   1 1368.91 44.7514   1
   2   1   1 120.421 4.47074   1
   3   1   1 277.645 9.60242   1
   4   1   1 170.787 5.62276   1
   5   1   1 1289.11 41.9758   1
   6   1   1 473.037 14.7529   1
   7   1   1 419.202 14.5552   1
   8   1   1 53.5506 1.96865   1
   9   1   1 7.30353 0.70365   1
  10   1   1 249.782 7.97031   1
  11   1   1 35.2421 1.56342   1
  12   1   1 366.443 12.2214   1
  13   1   1 438.502 14.4198   1
  14   1   1 13.1683 1.27315   1
  15   1   1 404.837 19.5524   1
  16   1   1 133.222 7.11537   1
  17   1   1 13.4846 2.50947   1
  18   1   1 52.3349 4.39885   1
  19   1   1 25.2054 3.19544   1
  20   1   1 3.60333 3.03182   1
  21   1   1 25.0193 4.13006   1
 -21   2   1 6.74755 3.26621   1
 -20   2   1 -2.2771 2.84738   1
 -19   2   1 55.1283 5.38421   1
 -18   2   1 4.62055 2.77666   1
 -17   2   1 79.1569 5.01179   1
 -16   2   1 81.7016 3.95412   1
 -15   2   1 21.1114 1.59037   1
 -14   2   1 29.0418 1.74596   1
 -13   2   1 5.52532 0.97462   1
 -12   2   1 232.429 7.88996   1
 -11   2   1 185.207 6.01642   1
 -10   2   1 128.460 4.28391   1
  -9   2   1 169.416 5.50940   1
  -8   2   1 61.0143 2.19791   1
  -7   2   1 355.228 11.6982   1
  -6   2   1 62.6787 2.30495   1
  -5   2   1 360.497 11.8230   1
  -4   2   1 763.759 24.8828   1
  -3   2   1 454.254 16.6550   1
  -2   2   1 531.477 18.3448   1
  -1   2   1 2387.00 86.2768   1
   0   2   1 723.685 26.2586   1
   1   2   1 565.829 18.5362   1
   2   2   1 140.941 5.29032   1
   3   2   1 343.708 11.2791   1
   4   2   1 658.741 21.4566   1
   5   2   1 775.808 25.2695   1
   6   2   1 412.786 13.5654   1
   7   2   1 73.8813 2.58184   1
   8   2   1 65.5784 2.34980   1
   9   2   1 23.0392 1.17939   1
  10   2   1 191.570 6.20704   1
  11   2   1 16.1508 1.06865   1
  12   2   1 6.39840 0.98817   1
  13   2   1 8.03642 1.06274   1
  14   2   1 6.25131 1.10462   1
  15   2   1 36.0742 2.63397   1
  16   2   1 73.1264 4.56839   1
  17   2   1 2.48570 2.09725   1
  18   2   1 20.1045 2.92818   1
  19   2   1 2.15302 2.87593   1
  20   2   1 9.87694 3.31286   1
 -20   3   1 12.9596 3.46497   1
 -19   3   1 18.6174 3.65420   1
 -18   3   1 4.07499 2.94684   1
 -17   3   1 12.9764 2.52364   1
 -16   3   1 36.7025 2.49783   1
 -15   3   1 71.1107 3.47083   1
 -14   3   1 70.1464 3.07947   1
 -13   3   1 68.5536 2.97552   1
  11   3   1 234.692 25.2303  -2
 -12   3   1 234.692 25.2303   1
  10   3   1 40.9058 6.29891  -2
 -11   3   1 40.9058 6.29891   1
   9   3   1 253.218 27.0417  -2
 -10   3   1 253.218 27.0417   1
   8   3   1 210.861 22.6821  -2
  -9   3   1 210.861 22.6821   1
  -8   3   1 19.3013 1.17890   1
  -7   3   1 67.6444 2.55274   1
  -6   3   1 6.68580 0.79392   1
  -5   3   1 314.215 10.3969   1
  -4   3   1 110.998 3.84277   1
  -3   3   1 223.551 7.82745   1
  -2   3   1 109.975 4.01576   1
  -1   3   1 88.8463 3.54113   1
   0   3   1 22.1229 1.29737   1
   1   3   1 148.591 5.04968   1
   2   3   1 123.681 4.22158   1
   3   3   1 238.907 7.92870   1
   4   3   1 8.53480 0.82863   1
   5   3   1 181.363 6.10688   1
   6   3   1 31.2584 1.49294   1
  -8   3   1 89.9324 10.7257  -2
   7   3   1 89.9324 10.7257   1
  -9   3   1 324.712 34.4369  -2
   8   3   1 324.712 34.4369   1
 -10   3   1 296.653 31.5712  -2
   9   3   1 296.653 31.5712   1
 -11   3   1 51.7102 7.44299  -2
  10   3   1 51.7102 7.44299   1
  11   3   1 10.3295 1.14790   1
  12   3   1 36.8058 1.99274   1
  13   3   1 24.0983 1.67481   1
  14   3   1 18.2883 1.54954   1
  15   3   1 5.20234 1.69150   1
  16   3   1 88.5106 4.89847   1
  17   3   1 6.56200 2.37333   1
  18   3   1 19.2218 3.66806   1
  19   3   1 0.89221 2.93552   1
 -18   4   1 14.5396 3.85831   1
 -17   4   1 4.79669 2.86833   1
 -16   4   1 54.3737 3.87325   1
 -15   4   1 22.0532 2.52094   1
  13   4   1 47.8114 8.06008  -2
 -14   4   1 47.8114 8.06008   1
  12   4   1 89.1721 11.4381  -2
 -13   4   1 89.1721 11.4381   1
  11   4   1 30.8474 6.77227  -2
 -12   4   1 30.8474 6.77227   1
  10   4   1 905.666 92.7377  -2
 -11   4   1 905.666 92.7377   1
   9   4   1 49.6744 8.57184  -2
 -10   4   1 49.6744 8.57184   1
  -9   4   1 21.1254 1.56036   1
  -8   4   1 21.9180 1.56079   1
  -7   4   1 10.5304 1.20694   1
  -6   4   1 358.906 15.4058   1
  -5   4   1 6.01054 1.04646   1
  -4   4   1 38.9029 2.00030   1
  -3   4   1 212.820 7.55783   1
  -2   4   1 25.9714 1.47959   1
  -1   4   1 592.849 20.4744   1
   0   4   1 149.584 5.45284   1
   1   4   1 291.670 9.25049   1
   2   4   1 68.1396 2.56488   1
   3   4   1 161.906 5.76154   1
   4   4   1 26.3032 1.46201   1
   5   4   1 115.473 4.23956   1
   6   4   1 210.589 8.01258   1
  -8   4   1 14.1586 5.35318  -2
   7   4   1 14.1586 5.35318   1
  -9   4   1 53.0355 7.92477  -2
   8   4   1 53.0355 7.92477   1
 -10   4   1 105.217 12.7973  -2
   9   4   1 105.217 12.7973   1
 -11   4   1 376.381 28.3122  -2
  10   4   1 376.381 28.3122   1
 -12   4   1 23.1219 4.61869  -2
  11   4   1 23.1219 4.61869   1
 -13   4   1 30.2166 7.98645  -2
  12   4   1 30.2166 7.98645   1
 -14   4   1 129.903 16.1611  -2
  13   4   1 129.903 16.1611   1
  14   4   1 77.1697 3.68752   1
  15   4   1 19.7423 2.10953   1
  16   4   1 12.4272 2.61617   1
  17   4   1 13.1568 4.40959   1
  18   4   1 5.52446 4.04654   1
 -16   5   1 27.3550 3.50337   1
 -15   5   1 4.49251 2.09827   1
 -14   5   1 18.7278 2.46866   1
 -13   5   1 59.1511 3.40443   1
 -12   5   1 14.3913 1.94566   1
 -11   5   1 88.2385 4.78670   1
 -10   5   1 104.390 5.20025   1
  -9   5   1 66.0444 3.77546   1
   7   5   1 86.5716 12.0897  -2
  -8   5   1 86.5716 12.0897   1
  -7   5   1 38.9372 2.69939   1
  -6   5   1 114.527 5.48211   1
  -5   5   1 38.8315 2.66853   1
  -4   5   1 162.688 7.42549   1
  -3   5   1 310.138 13.3969   1
   1   5   1 99.3968 12.8516  -2
  -2   5   1 99.3968 12.8516   1
  -1   5   1 25.3640 2.11611   1
   0   5   1 49.5323 3.00429   1
  -2   5   1 66.5363 9.89596  -2
   1   5   1 66.5363 9.89596   1
   2   5   1 27.3347 2.20135   1
   3   5   1 10.9516 1.65338   1
   4   5   1 8.59642 1.58786   1
   5   5   1 4.52364 1.48716   1
  -7   5   1 181.378 20.4600  -2
   6   5   1 181.378 20.4600   1
  -8   5   1 133.616 16.3504  -2
   7   5   1 133.616 16.3504   1
   8   5   1 117.830 5.75772   1
   9   5   1 24.6784 2.12359   1
  10   5   1 3.33529 1.59692   1
  11   5   1 106.879 5.36170   1
  12   5   1 198.566 8.43037   1
  13   5   1 15.1546 1.93061   1
  14   5   1 0.98514 1.58946   1
  15   5   1 95.9242 6.84650   1
  16   5   1 12.6023 3.24139   1
 -13   6   1 1.54764 2.59288   1
 -12   6   1 -0.1740 2.45647   1
 -11   6   1 14.5525 2.39082   1
 -10   6   1 5.78605 2.08470   1
   8   6   1 27.6951 8.56710  -2
  -9   6   1 27.6951 8.56710   1
   7   6   1 41.2932 9.06991  -2
  -8   6   1 41.2932 9.06991   1
   6   6   1 119.401 16.1338  -2
  -7   6   1 119.401 16.1338   1
  -6   6   1 18.2177 2.39884   1
  -5   6   1 13.4497 2.16792   1
   3   6   1 287.043 31.3613  -2
  -4   6   1 287.043 31.3613   1
  -3   6   1 10.3000 2.28585   1
  -2   6   1 21.1805 2.71906   1
  -1   6   1 18.1282 2.49939   1
   0   6   1 7.40474 2.25603   1
  -2   6   1 236.340 26.1878  -2
   1   6   1 236.340 26.1878   1
  -3   6   1 50.2095 6.98370  -2
   2   6   1 50.2095 6.98370   1
  -4   6   1 578.050 60.1559  -2
   3   6   1 578.050 60.1559   1
  -5   6   1 97.1187 13.6368  -2
   4   6   1 97.1187 13.6368   1
  -6   6   1 59.4573 10.7881  -2
   5   6   1 59.4573 10.7881   1
   6   6   1 15.1196 2.24849   1
  -8   6   1 41.9917 9.60213  -2
   7   6   1 41.9917 9.60213   1
  -9   6   1 72.5285 11.8743  -2
   8   6   1 72.5285 11.8743   1
   9   6   1 13.5358 2.23778   1
  10   6   1 3.57560 2.07680   1
  11   6   1 16.3317 2.47344   1
  12   6   1 0.86764 2.06352   1
  13   6   1 4.86943 2.16643   1
  -9   7   1 -1.9794 2.31605   1
  -8   7   1 8.83162 2.70220   1
   6   7   1 48.0843 11.7655  -2
  -7   7   1 48.0843 11.7655   1
  -6   7   1 6.82161 2.57702   1
  -5   7   1 26.9272 3.38753   1
  -4   7   1 31.1871 3.55282   1
  -3   7   1 4.42873 2.34264   1
  -2   7   1 96.2824 6.59188   1
  -1   7   1 76.2263 5.64794   1
   0   7   1 4.54050 2.43714   1
   1   7   1 3.43974 2.33611   1
   2   7   1 42.1595 4.01435   1
   3   7   1 7.27441 2.55818   1
   4   7   1 -0.1371 2.25419   1
   5   7   1 6.04395 2.45885   1
  -7   7   1 93.8727 14.6290  -2
   6   7   1 93.8727 14.6290   1
  -8   7   1 19.6684 10.2938  -2
   7   7   1 19.6684 10.2938   1
  -9   7   1 13.3110 9.84285  -2
   8   7   1 13.3110 9.84285   1
  20   0   2 27.5632 8.56746  -2
 -21   0   2 27.5632 8.56746   1
  19   0   2 97.2200 13.8544  -2
 -20   0   2 97.2200 13.8544   1
  18   0   2 9.32398 6.31641  -2
 -19   0   2 9.32398 6.31641   1
  17   0   2 85.3968 6.31433  -2
 -18   0   2 85.3968 6.31433   1
  16   0   2 325.566 20.5373  -2
 -17   0   2 325.566 20.5373   1
  15   0   2 131.687 7.53862  -2
 -16   0   2 131.687 7.53862   1
  14   0   2 153.246 8.73697  -2
 -15   0   2 153.246 8.73697   1
  13   0   2 32.0780 2.56395  -2
 -14   0   2 32.0780 2.56395   1
  12   0   2 11.8206 1.82800  -2
 -13   0   2 11.8206 1.82800   1
  11   0   2 158.483 8.78643  -2
 -12   0   2 158.483 8.78643   1
  10   0   2 1818.74 94.1140  -2
 -11   0   2 1818.74 94.1140   1
   9   0   2 503.202 26.3554  -2
 -10   0   2 503.202 26.3554   1
   8   0   2 1524.86 78.4569  -2
  -9   0   2 1524.86 78.4569   1
   7   0   2 4152.27 214.040  -2
  -8   0   2 4152.27 214.040   1
   6   0   2 398.265 20.8222  -2
  -7   0   2 398.265 20.8222   1
   5   0   2 3092.05 159.429  -2
  -6   0   2 3092.05 159.429   1
   4   0   2 3246.46 190.239  -2
  -5   0   2 3246.46 190.239   1
   3   0   2 3780.17 226.720  -2
  -4   0   2 3780.17 226.720   1
   2   0   2 7605.66 456.019  -2
  -3   0   2 7605.66 456.019   1
   1   0   2 1243.06 91.6676  -2
  -2   0   2 1243.06 91.6676   1
   0   0   2 659.159 30.2415  -2
  -1   0   2 659.159 30.2415   1
  -1   0   2 241.249 12.4243  -2
   0   0   2 241.249 12.4243   1
  -2   0   2 2449.03 146.987  -2
   1   0   2 2449.03 146.987   1
  -3   0   2 3907.60 288.163  -2
   2   0   2 3907.60 288.163   1
  -4   0   2 3280.79 169.203  -2
   3   0   2 3280.79 169.203   1
  -5   0   2 4454.76 229.460  -2
   4   0   2 4454.76 229.460   1
  -6   0   2 2648.37 136.543  -2
   5   0   2 2648.37 136.543   1
  -7   0   2 192.745 14.0630  -2
   6   0   2 192.745 14.0630   1
  -8   0   2 3445.28 177.701  -2
   7   0   2 3445.28 177.701   1
  -9   0   2 2465.81 127.390  -2
   8   0   2 2465.81 127.390   1
 -10   0   2 209.197 15.4426  -2
   9   0   2 209.197 15.4426   1
 -11   0   2 658.105 47.5777  -2
  10   0   2 658.105 47.5777   1
 -12   0   2 50.7388 2.89781  -2
  11   0   2 50.7388 2.89781   1
 -13   0   2 7.03336 1.50641  -2
  12   0   2 7.03336 1.50641   1
 -14   0   2 20.0151 2.20518  -2
  13   0   2 20.0151 2.20518   1
 -15   0   2 157.065 10.4062  -2
  14   0   2 157.065 10.4062   1
 -16   0   2 234.461 15.0380  -2
  15   0   2 234.461 15.0380   1
 -17   0   2 272.940 17.4132  -2
  16   0   2 272.940 17.4132   1
 -18   0   2 203.936 16.6167  -2
  17   0   2 203.936 16.6167   1
 -19   0   2 6.71288 4.35508  -2
  18   0   2 6.71288 4.35508   1
 -20   0   2 41.5490 6.06337  -2
  19   0   2 41.5490 6.06337   1
 -21   0   2 29.7777 5.73688  -2
  20   0   2 29.7777 5.73688   1
  20   1   2 45.8283 6.69720  -2
 -21   1   2 45.8283 6.69720   1
  19   1   2 7.24291 4.72912  -2
 -20   1   2 7.24291 4.72912   1
  18   1   2 13.8845 3.94282  -2
 -19   1   2 13.8845 3.94282   1
  17   1   2 29.1149 3.35488  -2
 -18   1   2 29.1149 3.35488   1
  16   1   2 61.4463 3.67225  -2
 -17   1   2 61.4463 3.67225   1
  15   1   2 135.020 6.47069  -2
 -16   1   2 135.020 6.47069   1
  14   1   2 60.5188 3.18526  -2
 -15   1   2 60.5188 3.18526   1
  13   1   2 63.0976 3.00025  -2
 -14   1   2 63.0976 3.00025   1
  12   1   2 82.8848 3.41853  -2
 -13   1   2 82.8848 3.41853   1
  11   1   2 68.8048 2.63947  -2
 -12   1   2 68.8048 2.63947   1
  10   1   2 5.12709 0.96742  -2
 -11   1   2 5.12709 0.96742   1
   9   1   2 40.0530 1.64603  -2
 -10   1   2 40.0530 1.64603   1
   8   1   2 922.677 28.6752  -2
  -9   1   2 922.677 28.6752   1
   7   1   2 1050.35 34.2194  -2
  -8   1   2 1050.35 34.2194   1
   6   1   2 284.995 9.43481  -2
  -7   1   2 284.995 9.43481   1
   5   1   2 99.2853 3.56474  -2
  -6   1   2 99.2853 3.56474   1
   4   1   2 45.4971 1.74147  -2
  -5   1   2 45.4971 1.74147   1
   3   1   2 482.345 28.2982  -2
  -4   1   2 482.345 28.2982   1
   2   1   2 1991.39 71.9656  -2
  -3   1   2 1991.39 71.9656   1
   1   1   2 1049.79 36.0159  -2
  -2   1   2 1049.79 36.0159   1
   0   1   2 873.746 28.3930  -2
  -1   1   2 873.746 28.3930   1
  -1   1   2 1232.60 48.0664  -2
   0   1   2 1232.60 48.0664   1
  -2   1   2 1689.98 55.2061  -2
   1   1   2 1689.98 55.2061   1
  -3   1   2 2545.02 87.2164  -2
   2   1   2 2545.02 87.2164   1
  -4   1   2 961.791 32.9966  -2
   3   1   2 961.791 32.9966   1
  -5   1   2 36.4271 1.45521  -2
   4   1   2 36.4271 1.45521   1
  -6   1   2 162.857 5.20811  -2
   5   1   2 162.857 5.20811   1
  -7   1   2 206.656 6.84785  -2
   6   1   2 206.656 6.84785   1
  -8   1   2 364.262 15.3896  -2
   7   1   2 364.262 15.3896   1
  -9   1   2 572.202 20.7905  -2
   8   1   2 572.202 20.7905   1
 -10   1   2 61.5079 2.24323  -2
   9   1   2 61.5079 2.24323   1
 -11   1   2 16.2061 1.07396  -2
  10   1   2 16.2061 1.07396   1
 -12   1   2 127.119 4.51992  -2
  11   1   2 127.119 4.51992   1
 -13   1   2 209.510 7.62239  -2
  12   1   2 209.510 7.62239   1
 -14   1   2 83.5921 3.41438  -2
  13   1   2 83.5921 3.41438   1
 -15   1   2 66.3158 3.44542  -2
  14   1   2 66.3158 3.44542   1
 -16   1   2 128.883 6.99536  -2
  15   1   2 128.883 6.99536   1
 -17   1   2 25.8891 2.92557  -2
  16   1   2 25.8891 2.92557   1
 -18   1   2 46.0340 4.14119  -2
  17   1   2 46.0340 4.14119   1
 -19   1   2 9.19690 3.02450  -2
  18   1   2 9.19690 3.02450   1
 -20   1   2 16.5848 3.40450  -2
  19   1   2 16.5848 3.40450   1
 -21   1   2 35.9260 4.92710  -2
  20   1   2 35.9260 4.92710   1
  20   2   2 37.3312 6.37285  -2
 -21   2   2 37.3312 6.37285   1
  19   2   2 1.19050 3.84675  -2
 -20   2   2 1.19050 3.84675   1
  18   2   2 9.31038 3.92131  -2
 -19   2   2 9.31038 3.92131   1
  17   2   2 10.3992 2.91567  -2
 -18   2   2 10.3992 2.91567   1
  16   2   2 8.93676 2.29742  -2
 -17   2   2 8.93676 2.29742   1
  15   2   2 264.425 11.8383  -2
 -16   2   2 264.425 11.8383   1
  14   2   2 147.672 5.98679  -2
 -15   2   2 147.672 5.98679   1
  13   2   2 251.180 9.07823  -2
 -14   2   2 251.180 9.07823   1
  12   2   2 66.7878 2.71869  -2
 -13   2   2 66.7878 2.71869   1
  11   2   2 93.0432 3.71896  -2
 -12   2   2 93.0432 3.71896   1
  10   2   2 411.636 13.6585  -2
 -11   2   2 411.636 13.6585   1
   9   2   2 49.5454 2.05555  -2
 -10   2   2 49.5454 2.05555   1
   8   2   2 35.2946 1.53570  -2
  -9   2   2 35.2946 1.53570   1
   7   2   2 26.0323 1.27106  -2
  -8   2   2 26.0323 1.27106   1
   6   2   2 885.853 32.1529  -2
  -7   2   2 885.853 32.1529   1
   5   2   2 246.179 12.8636  -2
  -6   2   2 246.179 12.8636   1
   4   2   2 434.748 15.0858  -2
  -5   2   2 434.748 15.0858   1
   3   2   2 163.910 5.85693  -2
  -4   2   2 163.910 5.85693   1
   2   2   2 571.835 19.6813  -2
  -3   2   2 571.835 19.6813   1
   1   2   2 730.985 26.5440  -2
  -2   2   2 730.985 26.5440   1
   0   2   2 1084.68 39.3091  -2
  -1   2   2 1084.68 39.3091   1
  -1   2   2 1054.12 38.1891  -2
   0   2   2 1054.12 38.1891   1
  -2   2   2 646.284 22.2820  -2
   1   2   2 646.284 22.2820   1
  -3   2   2 342.402 12.5502  -2
   2   2   2 342.402 12.5502   1
  -4   2   2 315.735 10.9910  -2
   3   2   2 315.735 10.9910   1
  -5   2   2 436.625 15.1479  -2
   4   2   2 436.625 15.1479   1
  -6   2   2 352.532 12.2415  -2
   5   2   2 352.532 12.2415   1
  -7   2   2 1197.09 38.9953  -2
   6   2   2 1197.09 38.9953   1
  -8   2   2 17.6721 1.06996  -2
   7   2   2 17.6721 1.06996   1
  -9   2   2 33.9611 1.46133  -2
   8   2   2 33.9611 1.46133   1
 -10   2   2 75.8249 2.85336  -2
   9   2   2 75.8249 2.85336   1
 -11   2   2 185.358 7.44030  -2
  10   2   2 185.358 7.44030   1
 -12   2   2 51.2563 2.29289  -2
  11   2   2 51.2563 2.29289   1
 -13   2   2 78.4085 3.24915  -2
  12   2   2 78.4085 3.24915   1
 -14   2   2 248.434 8.45515  -2
  13   2   2 248.434 8.45515   1
 -15   2   2 103.720 5.17277  -2
  14   2   2 103.720 5.17277   1
 -16   2   2 115.102 6.32867  -2
  15   2   2 115.102 6.32867   1
 -17   2   2 2.37230 2.40861  -2
  16   2   2 2.37230 2.40861   1
 -18   2   2 24.2167 3.00365  -2
  17   2   2 24.2167 3.00365   1
 -19   2   2 13.8502 3.26276  -2
  18   2   2 13.8502 3.26276   1
 -20   2   2 4.23319 3.76123  -2
  19   2   2 4.23319 3.76123   1
 -21   2   2 16.1955 4.42954  -2
  20   2   2 16.1955 4.42954   1
  19   3   2 11.3411 4.38238  -2
 -20   3   2 11.3411 4.38238   1
  18   3   2 64.4263 6.44690  -2
 -19   3   2 64.4263 6.44690   1
  17   3   2 51.6735 4.59823  -2
 -18   3   2 51.6735 4.59823   1
  16   3   2 79.0077 4.10407  -2
 -17   3   2 79.0077 4.10407   1
  15   3   2 315.173 12.9475  -2
 -16   3   2 315.173 12.9475   1
  14   3   2 234.224 10.5910  -2
 -15   3   2 234.224 10.5910   1
  13   3   2 31.6581 2.22551  -2
 -14   3   2 31.6581 2.22551   1
  12   3   2 900.639 41.2722  -2
 -13   3   2 900.639 41.2722   1
  11   3   2 4.44635 1.30797  -2
 -12   3   2 4.44635 1.30797   1
  10   3   2 229.812 7.83345  -2
 -11   3   2 229.812 7.83345   1
   9   3   2 75.1750 3.11164  -2
 -10   3   2 75.1750 3.11164   1
   8   3   2 128.158 4.81955  -2
  -9   3   2 128.158 4.81955   1
   7   3   2 118.747 4.23235  -2
  -8   3   2 118.747 4.23235   1
   6   3   2 347.840 11.5602  -2
  -7   3   2 347.840 11.5602   1
   5   3   2 357.952 12.4915  -2
  -6   3   2 357.952 12.4915   1
   4   3   2 940.618 32.4128  -2
  -5   3   2 940.618 32.4128   1
   3   3   2 218.714 7.71307  -2
  -4   3   2 218.714 7.71307   1
   2   3   2 1150.68 44.7671  -2
  -3   3   2 1150.68 44.7671   1
   1   3   2 36.0144 1.82408  -2
  -2   3   2 36.0144 1.82408   1
   0   3   2 19.2038 1.29823  -2
  -1   3   2 19.2038 1.29823   1
  -1   3   2 20.3841 1.34345  -2
   0   3   2 20.3841 1.34345   1
  -2   3   2 25.5646 1.30270  -2
   1   3   2 25.5646 1.30270   1
  -3   3   2 2285.44 78.3309  -2
   2   3   2 2285.44 78.3309   1
  -4   3   2 194.965 6.96915  -2
   3   3   2 194.965 6.96915   1
  -5   3   2 701.658 24.3196  -2
   4   3   2 701.658 24.3196   1
  -6   3   2 312.948 11.0311  -2
   5   3   2 312.948 11.0311   1
  -7   3   2 273.316 9.69202  -2
   6   3   2 273.316 9.69202   1
  -8   3   2 207.151 7.01735  -2
   7   3   2 207.151 7.01735   1
  -9   3   2 145.120 5.34890  -2
   8   3   2 145.120 5.34890   1
 -10   3   2 94.0756 3.50194  -2
   9   3   2 94.0756 3.50194   1
 -11   3   2 109.203 3.94810  -2
  10   3   2 109.203 3.94810   1
 -12   3   2 9.78609 1.40755  -2
  11   3   2 9.78609 1.40755   1
 -13   3   2 1870.02 73.5406  -2
  12   3   2 1870.02 73.5406   1
 -14   3   2 41.1467 2.47741  -2
  13   3   2 41.1467 2.47741   1
 -15   3   2 110.068 5.47389  -2
  14   3   2 110.068 5.47389   1
 -16   3   2 141.533 7.55770  -2
  15   3   2 141.533 7.55770   1
 -17   3   2 79.1591 5.05882  -2
  16   3   2 79.1591 5.05882   1
 -18   3   2 96.6660 6.61741  -2
  17   3   2 96.6660 6.61741   1
 -19   3   2 95.9619 7.94917  -2
  18   3   2 95.9619 7.94917   1
 -20   3   2 11.8568 4.20957  -2
  19   3   2 11.8568 4.20957   1
  17   4   2 0.81145 3.66217  -2
 -18   4   2 0.81145 3.66217   1
  16   4   2 13.3362 2.84152  -2
 -17   4   2 13.3362 2.84152   1
  15   4   2 56.6022 4.01375  -2
 -16   4   2 56.6022 4.01375   1
  14   4   2 75.1131 4.67427  -2
 -15   4   2 75.1131 4.67427   1
  13   4   2 33.6104 3.00425  -2
 -14   4   2 33.6104 3.00425   1
  12   4   2 22.0269 1.97831  -2
 -13   4   2 22.0269 1.97831   1
  11   4   2 63.6583 3.15214  -2
 -12   4   2 63.6583 3.15214   1
  10   4   2 339.983 13.6448  -2
 -11   4   2 339.983 13.6448   1
   9   4   2 71.7625 3.58239  -2
 -10   4   2 71.7625 3.58239   1
   8   4   2 5.26383 1.52015  -2
  -9   4   2 5.26383 1.52015   1
   7   4   2 22.3458 1.81255  -2
  -8   4   2 22.3458 1.81255   1
   6   4   2 66.0717 3.21894  -2
  -7   4   2 66.0717 3.21894   1
   5   4   2 178.840 6.88109  -2
  -6   4   2 178.840 6.88109   1
   4   4   2 260.620 9.78724  -2
  -5   4   2 260.620 9.78724   1
   3   4   2 31.2363 1.79230  -2
  -4   4   2 31.2363 1.79230   1
   2   4   2 71.6346 3.12352  -2
  -3   4   2 71.6346 3.12352   1
   1   4   2 103.322 4.22578  -2
  -2   4   2 103.322 4.22578   1
   0   4   2 200.511 7.65083  -2
  -1   4   2 200.511 7.65083   1
  -1   4   2 292.257 10.9543  -2
   0   4   2 292.257 10.9543   1
  -2   4   2 91.8234 3.56740  -2
   1   4   2 91.8234 3.56740   1
  -3   4   2 45.0478 2.07650  -2
   2   4   2 45.0478 2.07650   1
  -4   4   2 31.0829 1.70084  -2
   3   4   2 31.0829 1.70084   1
  -5   4   2 213.769 7.67457  -2
   4   4   2 213.769 7.67457   1
  -6   4   2 151.436 5.64378  -2
   5   4   2 151.436 5.64378   1
  -7   4   2 102.082 3.97785  -2
   6   4   2 102.082 3.97785   1
  -8   4   2 31.2793 1.92297  -2
   7   4   2 31.2793 1.92297   1
  -9   4   2 13.1065 1.51679  -2
   8   4   2 13.1065 1.51679   1
 -10   4   2 109.027 4.57799  -2
   9   4   2 109.027 4.57799   1
 -11   4   2 210.876 8.26639  -2
  10   4   2 210.876 8.26639   1
 -12   4   2 76.7561 3.34672  -2
  11   4   2 76.7561 3.34672   1
 -13   4   2 26.1673 1.98075  -2
  12   4   2 26.1673 1.98075   1
 -14   4   2 50.4345 2.78564  -2
  13   4   2 50.4345 2.78564   1
 -15   4   2 38.0107 3.09046  -2
  14   4   2 38.0107 3.09046   1
 -16   4   2 50.0072 4.51579  -2
  15   4   2 50.0072 4.51579   1
 -17   4   2 15.6996 3.39419  -2
  16   4   2 15.6996 3.39419   1
 -18   4   2 7.97516 5.22472  -2
  17   4   2 7.97516 5.22472   1
  15   5   2 26.4427 3.29756  -2
 -16   5   2 26.4427 3.29756   1
  14   5   2 24.5284 3.09835  -2
 -15   5   2 24.5284 3.09835   1
  13   5   2 27.3332 3.14275  -2
 -14   5   2 27.3332 3.14275   1
  12   5   2 39.3718 3.48860  -2
 -13   5   2 39.3718 3.48860   1
  11   5   2 15.4697 2.19072  -2
 -12   5   2 15.4697 2.19072   1
  10   5   2 4.27119 1.84382  -2
 -11   5   2 4.27119 1.84382   1
   9   5   2 5.54200 1.78910  -2
 -10   5   2 5.54200 1.78910   1
   8   5   2 10.2878 1.85055  -2
  -9   5   2 10.2878 1.85055   1
   7   5   2 6.23909 1.74187  -2
  -8   5   2 6.23909 1.74187   1
   6   5   2 13.3689 2.02274  -2
  -7   5   2 13.3689 2.02274   1
   5   5   2 24.6375 2.28015  -2
  -6   5   2 24.6375 2.28015   1
   4   5   2 59.8474 3.42306  -2
  -5   5   2 59.8474 3.42306   1
   3   5   2 94.2925 4.71843  -2
  -4   5   2 94.2925 4.71843   1
   2   5   2 137.663 6.39532  -2
  -3   5   2 137.663 6.39532   1
   1   5   2 19.1661 2.05735  -2
  -2   5   2 19.1661 2.05735   1
   0   5   2 64.4477 3.53988  -2
  -1   5   2 64.4477 3.53988   1
  -1   5   2 125.510 5.90054  -2
   0   5   2 125.510 5.90054   1
  -2   5   2 9.59486 1.90067  -2
   1   5   2 9.59486 1.90067   1
  -3   5   2 233.701 10.2757  -2
   2   5   2 233.701 10.2757   1
  -4   5   2 50.2299 3.09429  -2
   3   5   2 50.2299 3.09429   1
  -5   5   2 75.1681 4.00682  -2
   4   5   2 75.1681 4.00682   1
  -6   5   2 15.1622 2.06101  -2
   5   5   2 15.1622 2.06101   1
  -7   5   2 15.7813 2.14756  -2
   6   5   2 15.7813 2.14756   1
  -8   5   2 6.10839 1.94909  -2
   7   5   2 6.10839 1.94909   1
  -9   5   2 10.2684 2.01002  -2
   8   5   2 10.2684 2.01002   1
 -10   5   2 5.73511 2.04770  -2
   9   5   2 5.73511 2.04770   1
 -11   5   2 8.24899 2.13794  -2
  10   5   2 8.24899 2.13794   1
 -12   5   2 21.4900 2.64786  -2
  11   5   2 21.4900 2.64786   1
 -13   5   2 49.1870 3.08162  -2
  12   5   2 49.1870 3.08162   1
 -14   5   2 16.2679 2.26429  -2
  13   5   2 16.2679 2.26429   1
 -15   5   2 15.3672 2.60922  -2
  14   5   2 15.3672 2.60922   1
 -16   5   2 22.4769 3.24933  -2
  15   5   2 22.4769 3.24933   1
  12   6   2 -0.7469 2.95171  -2
 -13   6   2 -0.7469 2.95171   1
  11   6   2 56.1181 4.78932  -2
 -12   6   2 56.1181 4.78932   1
  10   6   2 130.779 8.01082  -2
 -11   6   2 130.779 8.01082   1
   9   6   2 23.9657 2.90750  -2
 -10   6   2 23.9657 2.90750   1
   8   6   2 62.6285 3.88892  -2
  -9   6   2 62.6285 3.88892   1
   7   6   2 25.1749 2.64741  -2
  -8   6   2 25.1749 2.64741   1
   6   6   2 110.921 5.66319  -2
  -7   6   2 110.921 5.66319   1
   5   6   2 133.958 6.45549  -2
  -6   6   2 133.958 6.45549   1
   4   6   2 107.414 5.43187  -2
  -5   6   2 107.414 5.43187   1
   3   6   2 55.7150 3.53387  -2
  -4   6   2 55.7150 3.53387   1
   2   6   2 349.803 15.2332  -2
  -3   6   2 349.803 15.2332   1
   1   6   2 165.702 7.73150  -2
  -2   6   2 165.702 7.73150   1
   0   6   2 312.339 13.6553  -2
  -1   6   2 312.339 13.6553   1
  -1   6   2 159.949 7.34022  -2
   0   6   2 159.949 7.34022   1
  -2   6   2 127.116 6.24382  -2
   1   6   2 127.116 6.24382   1
  -3   6   2 135.165 6.44015  -2
   2   6   2 135.165 6.44015   1
  -4   6   2 20.8468 2.45876  -2
   3   6   2 20.8468 2.45876   1
  -5   6   2 113.392 5.71458  -2
   4   6   2 113.392 5.71458   1
  -6   6   2 152.324 7.24851  -2
   5   6   2 152.324 7.24851   1
  -7   6   2 62.0152 3.76588  -2
   6   6   2 62.0152 3.76588   1
  -8   6   2 66.4810 3.97065  -2
   7   6   2 66.4810 3.97065   1
  -9   6   2 70.6766 4.21281  -2
   8   6   2 70.6766 4.21281   1
 -10   6   2 37.6649 3.39295  -2
   9   6   2 37.6649 3.39295   1
 -11   6   2 74.5630 4.76547  -2
  10   6   2 74.5630 4.76547   1
 -12   6   2 34.9338 3.42173  -2
  11   6   2 34.9338 3.42173   1
 -13   6   2 1.71567 2.67289  -2
  12   6   2 1.71567 2.67289   1
   8   7   2 16.3432 2.97036  -2
  -9   7   2 16.3432 2.97036   1
   7   7   2 24.2260 3.23660  -2
  -8   7   2 24.2260 3.23660   1
   6   7   2 44.0092 3.78193  -2
  -7   7   2 44.0092 3.78193   1
   5   7   2 19.3069 2.97717  -2
  -6   7   2 19.3069 2.97717   1
   4   7   2 6.21669 2.73341  -2
  -5   7   2 6.21669 2.73341   1
   3   7   2 25.3643 2.90495  -2
  -4   7   2 25.3643 2.90495   1
   2   7   2 27.4765 2.86177  -2
  -3   7   2 27.4765 2.86177   1
   1   7   2 24.8932 2.81164  -2
  -2   7   2 24.8932 2.81164   1
   0   7   2 18.3492 2.67158  -2
  -1   7   2 18.3492 2.67158   1
  -1   7   2 35.0396 3.08755  -2
   0   7   2 35.0396 3.08755   1
  -2   7   2 10.5682 2.52949  -2
   1   7   2 10.5682 2.52949   1
  -3   7   2 40.3269 3.25305  -2
   2   7   2 40.3269 3.25305   1
  -4   7   2 14.3983 2.64032  -2
   3   7   2 14.3983 2.64032   1
  -5   7   2 6.76672 2.70382  -2
   4   7   2 6.76672 2.70382   1
  -6   7   2 47.3915 3.84535  -2
   5   7   2 47.3915 3.84535   1
  -7   7   2 34.3895 3.48051  -2
   6   7   2 34.3895 3.48051   1
  -8   7   2 22.5566 3.10839  -2
   7   7   2 22.5566 3.10839   1
  -9   7   2 30.3644 3.36262  -2
   8   7   2 30.3644 3.36262   1
 -22   0   3 0.75776 5.55027   1
 -21   0   3 -2.3018 5.18913   1
 -20   0   3 1.75087 5.21770   1
 -19   0   3 0.11407 2.55314   1
 -18   0   3 0.12019 2.51439   1
 -17   0   3 -0.5368 1.74760   1
 -16   0   3 -0.1031 1.64803   1
 -15   0   3 -1.6673 1.47987   1
 -14   0   3 -0.0421 1.39498   1
 -13   0   3 1.03370 1.14087   1
 -12   0   3 -1.4250 1.02356   1
 -11   0   3 0.35380 1.01101   1
 -10   0   3 -0.8365 0.76753   1
  -9   0   3 -0.6542 0.73561   1
  -8   0   3 0.13743 0.70497   1
  -7   0   3 -0.2730 0.63826   1
  -6   0   3 -0.0338 0.61275   1
  -5   0   3 -0.4867 0.60219   1
  -4   0   3 0.67525 0.55030   1
  -3   0   3 0.31233 0.43770   1
  -2   0   3 0.07928 0.32998   1
  -1   0   3 -0.1130 0.26550   1
   0   0   3 0.07412 0.26816   1
   1   0   3 -0.0845 0.26755   1
   2   0   3 -0.1134 0.66066   1
   3   0   3 -0.4602 0.73204   1
   4   0   3 -0.7703 0.46305   1
   5   0   3 1.20918 0.53616   1
   6   0   3 -0.2406 0.60295   1
   7   0   3 0.98871 0.66466   1
   8   0   3 -0.7382 0.70973   1
   9   0   3 -0.4874 0.76353   1
  10   0   3 -0.6950 0.80859   1
  11   0   3 -1.0962 0.90065   1
  12   0   3 -0.5518 1.02943   1
  13   0   3 -1.3255 1.71120   1
  14   0   3 -0.7585 1.79720   1
  15   0   3 -0.8510 1.92365   1
  16   0   3 2.59865 2.27439   1
  17   0   3 -1.5579 2.92377   1
  18   0   3 3.67653 3.30499   1
  19   0   3 0.93745 3.42594   1
  20   0   3 1.00904 3.61583   1
 -21   1   3 5.77485 3.81015   1
 -20   1   3 16.3768 4.32712   1
 -19   1   3 5.34514 1.98851   1
 -18   1   3 128.927 6.37504   1
 -17   1   3 120.948 5.99618   1
 -16   1   3 22.4454 1.62571   1
 -15   1   3 14.7440 1.31709   1
 -14   1   3 65.7927 2.69058   1
 -13   1   3 4.80064 0.88372   1
 -12   1   3 43.2739 1.94341   1
 -11   1   3 35.3887 1.56054   1
 -10   1   3 3.08073 0.66435   1
  -9   1   3 249.875 7.95131   1
  -8   1   3 61.2516 2.29128   1
  -7   1   3 184.631 6.16079   1
  -6   1   3 76.8285 2.70916   1
  -5   1   3 213.134 7.43661   1
  -4   1   3 1946.71 76.1116   1
  -3   1   3 201.980 6.98772   1
  -2   1   3 263.968 8.62255   1
  -1   1   3 243.572 8.40622   1
   0   1   3 1087.69 35.4597   1
   1   1   3 4858.73 150.966   1
   2   1   3 208.930 6.54662   1
   3   1   3 1000.06 36.5024   1
   4   1   3 191.283 6.36664   1
   5   1   3 434.012 14.2277   1
   6   1   3 277.357 9.71084   1
   7   1   3 41.9997 1.61210   1
   8   1   3 46.8095 1.67559   1
   9   1   3 569.380 20.6776   1
  10   1   3 441.158 16.1904   1
  11   1   3 268.611 10.0446   1
  12   1   3 82.9304 3.21230   1
  13   1   3 90.7889 4.24954   1
  14   1   3 25.6947 2.20932   1
  15   1   3 24.3742 2.21602   1
  16   1   3 89.2310 5.37699   1
  17   1   3 69.5496 4.54290   1
  18   1   3 52.3360 4.52712   1
  19   1   3 0.13527 2.35499   1
  20   1   3 24.9964 3.42088   1
 -21   2   3 1.07083 3.83202   1
 -20   2   3 20.5905 3.67360   1
 -19   2   3 36.1813 3.60504   1
 -18   2   3 65.6890 3.57125   1
 -17   2   3 66.3531 3.55140   1
 -16   2   3 12.5228 1.72792   1
 -15   2   3 24.0025 1.69359   1
 -14   2   3 845.063 29.3623   1
 -13   2   3 233.241 7.98255   1
 -12   2   3 261.819 9.37556   1
 -11   2   3 295.687 9.50240   1
 -10   2   3 337.247 10.6671   1
  -9   2   3 35.5262 1.50093   1
  -8   2   3 122.512 4.49544   1
  -7   2   3 606.551 20.9483   1
  -6   2   3 96.8911 3.55015   1
  -5   2   3 113.558 4.12843   1
  -4   2   3 1901.77 65.2013   1
  -3   2   3 52.6645 2.51880   1
  -2   2   3 120.829 4.09779   1
  -1   2   3 2285.09 74.1686   1
   0   2   3 31.5775 1.67604   1
   1   2   3 581.548 18.1719   1
   2   2   3 129.224 4.41036   1
   3   2   3 51.2645 1.94587   1
   4   2   3 280.017 9.75161   1
   5   2   3 321.197 11.1830   1
   6   2   3 680.669 23.5111   1
   7   2   3 25.5244 1.26528   1
   8   2   3 356.940 11.2474   1
   9   2   3 104.085 3.56553   1
 -12   2   3 152.016 16.9276  -2
  10   2   3 152.016 16.9276   1
 -13   2   3 219.530 16.7001  -2
  11   2   3 219.530 16.7001   1
 -14   2   3 434.847 45.2742  -2
  12   2   3 434.847 45.2742   1
 -15   2   3 35.1769 6.95942  -2
  13   2   3 35.1769 6.95942   1
  14   2   3 89.0034 5.11742   1
  15   2   3 2.74727 1.84056   1
  16   2   3 -0.1497 1.83655   1
  17   2   3 35.7351 3.23406   1
  18   2   3 13.2641 2.80332   1
  19   2   3 -0.9575 2.40989   1
 -20   3   3 7.55590 3.24722   1
 -19   3   3 30.3884 3.49598   1
 -18   3   3 6.59551 1.67488   1
 -17   3   3 7.52081 1.63513   1
 -16   3   3 6.15288 1.54291   1
 -15   3   3 23.5108 2.18804   1
 -14   3   3 7.74266 1.50676   1
  11   3   3 81.7012 10.0368  -2
 -13   3   3 81.7012 10.0368   1
  10   3   3 118.343 9.44295  -2
 -12   3   3 118.343 9.44295   1
   9   3   3 194.106 14.7828  -2
 -11   3   3 194.106 14.7828   1
   8   3   3 29.7375 5.01736  -2
 -10   3   3 29.7375 5.01736   1
   7   3   3 21.2029 4.28555  -2
  -9   3   3 21.2029 4.28555   1
   6   3   3 44.1355 6.06838  -2
  -8   3   3 44.1355 6.06838   1
  -7   3   3 104.146 3.87646   1
  -6   3   3 149.664 5.40379   1
  -5   3   3 41.5190 1.80536   1
  -4   3   3 138.117 5.29212   1
  -3   3   3 23.4531 1.36763   1
  -2   3   3 112.654 4.39397   1
  -1   3   3 8.21096 0.92375   1
   0   3   3 7.28475 0.73087   1
   1   3   3 25.7032 1.22410   1
   2   3   3 193.101 6.53637   1
   3   3   3 195.800 6.90902   1
   4   3   3 24.2261 1.35506   1
   5   3   3 302.678 10.5685   1
  -8   3   3 74.6479 9.48025  -2
   6   3   3 74.6479 9.48025   1
  -9   3   3 51.2855 7.51238  -2
   7   3   3 51.2855 7.51238   1
 -10   3   3 37.7716 6.33346  -2
   8   3   3 37.7716 6.33346   1
 -11   3   3 91.7600 6.62282  -2
   9   3   3 91.7600 6.62282   1
 -12   3   3 317.993 19.4403  -2
  10   3   3 317.993 19.4403   1
 -13   3   3 144.299 9.64542  -2
  11   3   3 144.299 9.64542   1
  12   3   3 75.7310 3.48792   1
  13   3   3 60.1588 3.25881   1
  14   3   3 7.74297 1.69006   1
  15   3   3 97.2953 5.75720   1
  16   3   3 37.9464 3.22129   1
  17   3   3 9.29977 2.34182   1
  18   3   3 11.6030 2.84836   1
 -19   4   3 0.15378 4.46428   1
 -18   4   3 6.02754 1.94889   1
 -17   4   3 267.908 13.2594   1
 -16   4   3 4.91043 2.03822   1
 -15   4   3 12.7551 2.11955   1
 -14   4   3 47.2519 3.37564   1
 -13   4   3 17.6486 2.01206   1
  10   4   3 99.1245 8.84891  -2
 -12   4   3 99.1245 8.84891   1
   9   4   3 585.799 43.0856  -2
 -11   4   3 585.799 43.0856   1
   8   4   3 87.2954 10.7061  -2
 -10   4   3 87.2954 10.7061   1
   7   4   3 18.0958 3.98091  -2
  -9   4   3 18.0958 3.98091   1
   6   4   3 22.0938 4.04470  -2
  -8   4   3 22.0938 4.04470   1
   5   4   3 413.687 30.5865  -2
  -7   4   3 413.687 30.5865   1
   4   4   3 174.303 19.2897  -2
  -6   4   3 174.303 19.2897   1
   3   4   3 225.833 24.5863  -2
  -5   4   3 225.833 24.5863   1
   2   4   3 380.645 40.3365  -2
  -4   4   3 380.645 40.3365   1
   1   4   3 110.191 13.2065  -2
  -3   4   3 110.191 13.2065   1
   0   4   3 110.130 9.09157  -2
  -2   4   3 110.130 9.09157   1
  -1   4   3 257.538 28.3491  -2
  -1   4   3 257.538 28.3491   1
  -2   4   3 147.851 16.5587  -2
   0   4   3 147.851 16.5587   1
  -3   4   3 69.0581 4.65062  -2
   1   4   3 69.0581 4.65062   1
  -4   4   3 227.183 17.3193  -2
   2   4   3 227.183 17.3193   1
  -5   4   3 287.161 21.5938  -2
   3   4   3 287.161 21.5938   1
  -6   4   3 250.422 27.1742  -2
   4   4   3 250.422 27.1742   1
  -7   4   3 532.796 31.8806  -2
   5   4   3 532.796 31.8806   1
  -8   4   3 32.2395 4.78699  -2
   6   4   3 32.2395 4.78699   1
  -9   4   3 17.1702 4.34985  -2
   7   4   3 17.1702 4.34985   1
 -10   4   3 61.7700 9.16850  -2
   8   4   3 61.7700 9.16850   1
 -11   4   3 310.509 23.5563  -2
   9   4   3 310.509 23.5563   1
 -12   4   3 139.646 9.54073  -2
  10   4   3 139.646 9.54073   1
 -13   4   3 281.965 21.6834  -2
  11   4   3 281.965 21.6834   1
 -14   4   3 31.3578 6.92342  -2
  12   4   3 31.3578 6.92342   1
  13   4   3 95.8176 5.09741   1
  14   4   3 83.5485 4.68506   1
  15   4   3 7.14506 2.20918   1
  16   4   3 18.0402 2.19509   1
  17   4   3 26.2926 3.50006   1
 -17   5   3 21.0045 4.16685   1
 -16   5   3 6.52877 2.19990   1
 -15   5   3 11.1022 2.27650   1
  12   5   3 193.176 22.5289  -2
 -14   5   3 193.176 22.5289   1
  11   5   3 56.9884 10.5809  -2
 -13   5   3 56.9884 10.5809   1
  10   5   3 25.8497 8.29404  -2
 -12   5   3 25.8497 8.29404   1
   9   5   3 -1.4165 4.45769  -2
 -11   5   3 -1.4165 4.45769   1
   8   5   3 55.6661 6.33652  -2
 -10   5   3 55.6661 6.33652   1
   7   5   3 279.552 21.3066  -2
  -9   5   3 279.552 21.3066   1
   6   5   3 65.4857 6.77331  -2
  -8   5   3 65.4857 6.77331   1
   5   5   3 73.7327 6.10533  -2
  -7   5   3 73.7327 6.10533   1
   4   5   3 95.0941 7.02667  -2
  -6   5   3 95.0941 7.02667   1
   3   5   3 132.909 9.16076  -2
  -5   5   3 132.909 9.16076   1
   2   5   3 113.153 8.11334  -2
  -4   5   3 113.153 8.11334   1
   1   5   3 286.056 17.7856  -2
  -3   5   3 286.056 17.7856   1
   0   5   3 88.2448 6.79211  -2
  -2   5   3 88.2448 6.79211   1
  -1   5   3 9.28163 3.58179  -2
  -1   5   3 9.28163 3.58179   1
  -2   5   3 145.361 9.77509  -2
   0   5   3 145.361 9.77509   1
  -3   5   3 472.641 35.1121  -2
   1   5   3 472.641 35.1121   1
  -4   5   3 119.587 8.43437  -2
   2   5   3 119.587 8.43437   1
  -5   5   3 48.2785 4.94859  -2
   3   5   3 48.2785 4.94859   1
  -6   5   3 110.614 7.99110  -2
   4   5   3 110.614 7.99110   1
  -7   5   3 57.1008 5.44113  -2
   5   5   3 57.1008 5.44113   1
  -8   5   3 78.5286 7.84158  -2
   6   5   3 78.5286 7.84158   1
  -9   5   3 228.705 14.6781  -2
   7   5   3 228.705 14.6781   1
 -10   5   3 34.7355 4.78469  -2
   8   5   3 34.7355 4.78469   1
 -11   5   3 -5.8943 6.28431  -2
   9   5   3 -5.8943 6.28431   1
 -12   5   3 37.2200 8.02385  -2
  10   5   3 37.2200 8.02385   1
 -13   5   3 138.093 16.7257  -2
  11   5   3 138.093 16.7257   1
 -14   5   3 274.645 30.2171  -2
  12   5   3 274.645 30.2171   1
 -15   5   3 33.6485 6.32871  -2
  13   5   3 33.6485 6.32871   1
 -16   5   3 30.9079 10.6941  -2
  14   5   3 30.9079 10.6941   1
  15   5   3 2.72469 2.11796   1
 -14   6   3 1.34872 2.98683   1
  11   6   3 18.9127 9.31269  -2
 -13   6   3 18.9127 9.31269   1
  10   6   3 21.9545 8.84874  -2
 -12   6   3 21.9545 8.84874   1
   9   6   3 19.7257 8.25579  -2
 -11   6   3 19.7257 8.25579   1
   8   6   3 29.5908 5.81131  -2
 -10   6   3 29.5908 5.81131   1
   7   6   3 42.4651 6.26053  -2
  -9   6   3 42.4651 6.26053   1
   6   6   3 39.1852 6.15288  -2
  -8   6   3 39.1852 6.15288   1
   5   6   3 41.8016 5.38289  -2
  -7   6   3 41.8016 5.38289   1
   4   6   3 93.6784 7.56179  -2
  -6   6   3 93.6784 7.56179   1
   3   6   3 29.7918 4.79014  -2
  -5   6   3 29.7918 4.79014   1
   2   6   3 22.8977 4.67480  -2
  -4   6   3 22.8977 4.67480   1
   1   6   3 252.236 16.1200  -2
  -3   6   3 252.236 16.1200   1
   0   6   3 108.308 7.33521  -2
  -2   6   3 108.308 7.33521   1
  -1   6   3 12.2514 3.95501  -2
  -1   6   3 12.2514 3.95501   1
  -2   6   3 94.5743 7.67411  -2
   0   6   3 94.5743 7.67411   1
  -3   6   3 113.955 8.59158  -2
   1   6   3 113.955 8.59158   1
  -4   6   3 22.0140 4.65054  -2
   2   6   3 22.0140 4.65054   1
  -5   6   3 34.4546 5.01892  -2
   3   6   3 34.4546 5.01892   1
  -6   6   3 59.8828 6.04298  -2
   4   6   3 59.8828 6.04298   1
  -7   6   3 58.0116 6.03983  -2
   5   6   3 58.0116 6.03983   1
  -8   6   3 32.9693 6.33919  -2
   6   6   3 32.9693 6.33919   1
  -9   6   3 37.0242 6.25920  -2
   7   6   3 37.0242 6.25920   1
 -10   6   3 7.15838 5.47040  -2
   8   6   3 7.15838 5.47040   1
 -11   6   3 15.3598 6.05197  -2
   9   6   3 15.3598 6.05197   1
 -12   6   3 14.6111 6.20985  -2
  10   6   3 14.6111 6.20985   1
 -13   6   3 7.38304 5.93099  -2
  11   6   3 7.38304 5.93099   1
  12   6   3 14.5531 2.62821   1
   7   7   3 31.0101 9.54786  -2
  -9   7   3 31.0101 9.54786   1
   6   7   3 73.5344 12.1486  -2
  -8   7   3 73.5344 12.1486   1
   5   7   3 27.9098 6.43433  -2
  -7   7   3 27.9098 6.43433   1
   4   7   3 116.985 11.1603  -2
  -6   7   3 116.985 11.1603   1
   3   7   3 135.100 10.3505  -2
  -5   7   3 135.100 10.3505   1
   2   7   3 112.958 10.9734  -2
  -4   7   3 112.958 10.9734   1
   1   7   3 54.4350 7.94727  -2
  -3   7   3 54.4350 7.94727   1
   0   7   3 30.5945 5.65899  -2
  -2   7   3 30.5945 5.65899   1
  -1   7   3 2.03884 6.10067  -2
  -1   7   3 2.03884 6.10067   1
  -2   7   3 6.80034 5.98800  -2
   0   7   3 6.80034 5.98800   1
  -3   7   3 78.1040 9.06558  -2
   1   7   3 78.1040 9.06558   1
  -4   7   3 60.4041 8.11148  -2
   2   7   3 60.4041 8.11148   1
  -5   7   3 48.1535 7.58037  -2
   3   7   3 48.1535 7.58037   1
  -6   7   3 85.0954 9.35139  -2
   4   7   3 85.0954 9.35139   1
  -7   7   3 64.3110 8.36013  -2
   5   7   3 64.3110 8.36013   1
  -8   7   3 135.207 12.6386  -2
   6   7   3 135.207 12.6386   1
  -9   7   3 39.6225 7.44875  -2
   7   7   3 39.6225 7.44875   1
  20   0   4 71.3158 12.3220  -2
 -22   0   4 71.3158 12.3220   1
  19   0   4 138.106 18.4375  -2
 -21   0   4 138.106 18.4375   1
  18   0   4 12.6983 7.35818  -2
 -20   0   4 12.6983 7.35818   1
  17   0   4 12.0998 4.37563  -2
 -19   0   4 12.0998 4.37563   1
  16   0   4 117.760 8.52000  -2
 -18   0   4 117.760 8.52000   1
  15   0   4 51.5529 4.92652  -2
 -17   0   4 51.5529 4.92652   1
  14   0   4 391.053 20.8385  -2
 -16   0   4 391.053 20.8385   1
  13   0   4 343.431 18.3909  -2
 -15   0   4 343.431 18.3909   1
  12   0   4 99.8574 5.99317  -2
 -14   0   4 99.8574 5.99317   1
  11   0   4 146.488 7.32087  -2
 -13   0   4 146.488 7.32087   1
  10   0   4 206.762 9.95407  -2
 -12   0   4 206.762 9.95407   1
   9   0   4 794.182 41.2837  -2
 -11   0   4 794.182 41.2837   1
   8   0   4 1243.08 64.2732  -2
 -10   0   4 1243.08 64.2732   1
   7   0   4 682.782 35.4872  -2
  -9   0   4 682.782 35.4872   1
   6   0   4 322.609 23.1673  -2
  -8   0   4 322.609 23.1673   1
   5   0   4 704.526 42.5582  -2
  -7   0   4 704.526 42.5582   1
   4   0   4 2544.03 152.629  -2
  -6   0   4 2544.03 152.629   1
   3   0   4 830.032 49.8445  -2
  -5   0   4 830.032 49.8445   1
   2   0   4 9758.15 585.358  -2
  -4   0   4 9758.15 585.358   1
   1   0   4 6561.39 300.831  -2
  -3   0   4 6561.39 300.831   1
   0   0   4 2772.22 127.176  -2
  -2   0   4 2772.22 127.176   1
  -1   0   4 155.256 6.04918  -2
  -1   0   4 155.256 6.04918   1
  -2   0   4 3295.09 151.140  -2
   0   0   4 3295.09 151.140   1
  -3   0   4 9999.99 422.342  -2
   1   0   4 9999.99 422.342   1
  -4   0   4 9150.94 549.164  -2
   2   0   4 9150.94 549.164   1
  -5   0   4 400.440 24.3382  -2
   3   0   4 400.440 24.3382   1
  -6   0   4 1323.07 97.8352  -2
   4   0   4 1323.07 97.8352   1
  -7   0   4 706.128 42.7189  -2
   5   0   4 706.128 42.7189   1
  -8   0   4 765.344 45.1908  -2
   6   0   4 765.344 45.1908   1
  -9   0   4 489.051 25.3419  -2
   7   0   4 489.051 25.3419   1
 -10   0   4 919.625 47.5079  -2
   8   0   4 919.625 47.5079   1
 -11   0   4 245.324 18.0532  -2
   9   0   4 245.324 18.0532   1
 -12   0   4 160.234 8.66787  -2
  10   0   4 160.234 8.66787   1
 -13   0   4 58.0088 3.54411  -2
  11   0   4 58.0088 3.54411   1
 -14   0   4 69.6040 5.34976  -2
  12   0   4 69.6040 5.34976   1
 -15   0   4 184.816 12.0345  -2
  13   0   4 184.816 12.0345   1
 -16   0   4 282.965 17.9501  -2
  14   0   4 282.965 17.9501   1
 -17   0   4 26.2833 3.79870  -2
  15   0   4 26.2833 3.79870   1
 -18   0   4 86.8131 6.81058  -2
  16   0   4 86.8131 6.81058   1
 -19   0   4 11.3120 4.56570  -2
  17   0   4 11.3120 4.56570   1
 -20   0   4 2.18442 4.43017  -2
  18   0   4 2.18442 4.43017   1
 -21   0   4 124.476 11.6545  -2
  19   0   4 124.476 11.6545   1
 -22   0   4 37.1768 6.43844  -2
  20   0   4 37.1768 6.43844   1
  20   1   4 32.9116 6.63497  -2
 -22   1   4 32.9116 6.63497   1
  19   1   4 7.30152 5.22434  -2
 -21   1   4 7.30152 5.22434   1
  18   1   4 17.5440 4.15105  -2
 -20   1   4 17.5440 4.15105   1
  17   1   4 11.4740 3.07375  -2
 -19   1   4 11.4740 3.07375   1
  16   1   4 67.8568 5.11626  -2
 -18   1   4 67.8568 5.11626   1
  15   1   4 32.3072 2.79295  -2
 -17   1   4 32.3072 2.79295   1
  14   1   4 10.1767 2.16335  -2
 -16   1   4 10.1767 2.16335   1
  13   1   4 36.7721 2.43389  -2
 -15   1   4 36.7721 2.43389   1
  12   1   4 110.907 4.91772  -2
 -14   1   4 110.907 4.91772   1
  11   1   4 149.615 5.91788  -2
 -13   1   4 149.615 5.91788   1
  10   1   4 77.7917 3.17449  -2
 -12   1   4 77.7917 3.17449   1
   9   1   4 26.8354 1.50526  -2
 -11   1   4 26.8354 1.50526   1
   8   1   4 88.4488 3.07167  -2
 -10   1   4 88.4488 3.07167   1
   7   1   4 434.287 14.3318  -2
  -9   1   4 434.287 14.3318   1
   6   1   4 142.385 5.11934  -2
  -8   1   4 142.385 5.11934   1
   5   1   4 39.6382 1.72626  -2
  -7   1   4 39.6382 1.72626   1
   4   1   4 230.588 8.11376  -2
  -6   1   4 230.588 8.11376   1
   3   1   4 551.602 17.9847  -2
  -5   1   4 551.602 17.9847   1
   2   1   4 2290.52 78.3370  -2
  -4   1   4 2290.52 78.3370   1
   1   1   4 1867.58 73.0268  -2
  -3   1   4 1867.58 73.0268   1
   0   1   4 3897.02 141.989  -2
  -2   1   4 3897.02 141.989   1
  -1   1   4 7046.67 256.782  -2
  -1   1   4 7046.67 256.782   1
  -2   1   4 3087.77 113.522  -2
   0   1   4 3087.77 113.522   1
  -3   1   4 3992.89 130.414  -2
   1   1   4 3992.89 130.414   1
  -4   1   4 1646.55 56.4438  -2
   2   1   4 1646.55 56.4438   1
  -5   1   4 475.361 14.7987  -2
   3   1   4 475.361 14.7987   1
  -6   1   4 198.425 6.63657  -2
   4   1   4 198.425 6.63657   1
  -7   1   4 52.4915 2.09583  -2
   5   1   4 52.4915 2.09583   1
  -8   1   4 166.943 5.93736  -2
   6   1   4 166.943 5.93736   1
  -9   1   4 164.748 7.95833  -2
   7   1   4 164.748 7.95833   1
 -10   1   4 100.346 3.40516  -2
   8   1   4 100.346 3.40516   1
 -11   1   4 50.5158 1.99111  -2
   9   1   4 50.5158 1.99111   1
 -12   1   4 68.7595 2.85288  -2
  10   1   4 68.7595 2.85288   1
 -13   1   4 103.196 4.17692  -2
  11   1   4 103.196 4.17692   1
 -14   1   4 95.2490 4.84233  -2
  12   1   4 95.2490 4.84233   1
 -15   1   4 89.9391 4.70949  -2
  13   1   4 89.9391 4.70949   1
 -16   1   4 13.6970 2.30080  -2
  14   1   4 13.6970 2.30080   1
 -17   1   4 73.0917 4.23551  -2
  15   1   4 73.0917 4.23551   1
 -18   1   4 30.8578 3.31664  -2
  16   1   4 30.8578 3.31664   1
 -19   1   4 20.4199 3.13673  -2
  17   1   4 20.4199 3.13673   1
 -20   1   4 19.1836 3.68784  -2
  18   1   4 19.1836 3.68784   1
 -21   1   4 10.0102 3.55610  -2
  19   1   4 10.0102 3.55610   1
 -22   1   4 17.2498 3.97255  -2
  20   1   4 17.2498 3.97255   1
  19   2   4 9.99830 5.43536  -2
 -21   2   4 9.99830 5.43536   1
  18   2   4 21.7494 4.41138  -2
 -20   2   4 21.7494 4.41138   1
  17   2   4 2.79508 2.75606  -2
 -19   2   4 2.79508 2.75606   1
  16   2   4 31.5869 3.30305  -2
 -18   2   4 31.5869 3.30305   1
  15   2   4 90.7732 5.46371  -2
 -17   2   4 90.7732 5.46371   1
  14   2   4 155.628 7.76768  -2
 -16   2   4 155.628 7.76768   1
  13   2   4 48.1846 2.74843  -2
 -15   2   4 48.1846 2.74843   1
  12   2   4 724.514 26.6889  -2
 -14   2   4 724.514 26.6889   1
  11   2   4 492.079 16.3098  -2
 -13   2   4 492.079 16.3098   1
  10   2   4 210.986 7.63969  -2
 -12   2   4 210.986 7.63969   1
   9   2   4 57.6151 2.59319  -2
 -11   2   4 57.6151 2.59319   1
   8   2   4 63.3743 2.68752  -2
 -10   2   4 63.3743 2.68752   1
   7   2   4 106.899 3.83380  -2
  -9   2   4 106.899 3.83380   1
   6   2   4 57.3477 2.39931  -2
  -8   2   4 57.3477 2.39931   1
   5   2   4 730.705 28.7102  -2
  -7   2   4 730.705 28.7102   1
   4   2   4 778.768 28.3018  -2
  -6   2   4 778.768 28.3018   1
   3   2   4 887.159 30.5184  -2
  -5   2   4 887.159 30.5184   1
   2   2   4 685.566 23.6027  -2
  -4   2   4 685.566 23.6027   1
   1   2   4 161.013 5.43387  -2
  -3   2   4 161.013 5.43387   1
   0   2   4 580.774 20.0630  -2
  -2   2   4 580.774 20.0630   1
  -1   2   4 310.984 10.2225  -2
  -1   2   4 310.984 10.2225   1
  -2   2   4 1039.75 33.8150  -2
   0   2   4 1039.75 33.8150   1
  -3   2   4 204.493 6.78586  -2
   1   2   4 204.493 6.78586   1
  -4   2   4 393.369 14.5233  -2
   2   2   4 393.369 14.5233   1
  -5   2   4 638.578 20.8585  -2
   3   2   4 638.578 20.8585   1
  -6   2   4 1064.58 36.5817  -2
   4   2   4 1064.58 36.5817   1
  -7   2   4 434.755 20.0807  -2
   5   2   4 434.755 20.0807   1
  -8   2   4 61.3657 2.36428  -2
   6   2   4 61.3657 2.36428   1
  -9   2   4 53.4750 2.16816  -2
   7   2   4 53.4750 2.16816   1
 -10   2   4 62.9959 2.48266  -2
   8   2   4 62.9959 2.48266   1
 -11   2   4 44.0776 2.03859  -2
   9   2   4 44.0776 2.03859   1
 -12   2   4 125.111 4.92304  -2
  10   2   4 125.111 4.92304   1
 -13   2   4 234.437 8.38353  -2
  11   2   4 234.437 8.38353   1
 -14   2   4 392.963 19.0016  -2
  12   2   4 392.963 19.0016   1
 -15   2   4 24.2741 2.52460  -2
  13   2   4 24.2741 2.52460   1
 -16   2   4 369.736 17.9836  -2
  14   2   4 369.736 17.9836   1
 -17   2   4 62.7037 4.37835  -2
  15   2   4 62.7037 4.37835   1
 -18   2   4 41.8992 3.77363  -2
  16   2   4 41.8992 3.77363   1
 -19   2   4 3.71832 2.86961  -2
  17   2   4 3.71832 2.86961   1
 -20   2   4 28.4486 4.02859  -2
  18   2   4 28.4486 4.02859   1
 -21   2   4 12.5997 3.73192  -2
  19   2   4 12.5997 3.73192   1
  18   3   4 3.19957 3.55339  -2
 -20   3   4 3.19957 3.55339   1
  17   3   4 52.4644 3.75615  -2
 -19   3   4 52.4644 3.75615   1
  16   3   4 180.147 7.86702  -2
 -18   3   4 180.147 7.86702   1
  15   3   4 39.5086 2.95497  -2
 -17   3   4 39.5086 2.95497   1
  14   3   4 7.68905 2.11309  -2
 -16   3   4 7.68905 2.11309   1
  13   3   4 15.7596 2.43091  -2
 -15   3   4 15.7596 2.43091   1
  12   3   4 126.643 6.20809  -2
 -14   3   4 126.643 6.20809   1
  11   3   4 195.177 8.87149  -2
 -13   3   4 195.177 8.87149   1
  10   3   4 66.4421 2.96072  -2
 -12   3   4 66.4421 2.96072   1
   9   3   4 80.1047 3.10423  -2
 -11   3   4 80.1047 3.10423   1
   8   3   4 39.3557 2.09916  -2
 -10   3   4 39.3557 2.09916   1
   7   3   4 71.8295 3.13031  -2
  -9   3   4 71.8295 3.13031   1
   6   3   4 577.347 20.0795  -2
  -8   3   4 577.347 20.0795   1
   5   3   4 123.275 4.64493  -2
  -7   3   4 123.275 4.64493   1
   4   3   4 77.0087 3.09648  -2
  -6   3   4 77.0087 3.09648   1
   3   3   4 363.949 12.7123  -2
  -5   3   4 363.949 12.7123   1
   2   3   4 200.232 7.14956  -2
  -4   3   4 200.232 7.14956   1
   1   3   4 728.043 26.5142  -2
  -3   3   4 728.043 26.5142   1
   0   3   4 83.3661 3.21288  -2
  -2   3   4 83.3661 3.21288   1
  -1   3   4 -0.3075 0.99456  -2
  -1   3   4 -0.3075 0.99456   1
  -2   3   4 117.593 4.07736  -2
   0   3   4 117.593 4.07736   1
  -3   3   4 1266.06 39.4617  -2
   1   3   4 1266.06 39.4617   1
  -4   3   4 310.395 10.3479  -2
   2   3   4 310.395 10.3479   1
  -5   3   4 166.242 6.37417  -2
   3   3   4 166.242 6.37417   1
  -6   3   4 175.108 6.24798  -2
   4   3   4 175.108 6.24798   1
  -7   3   4 178.399 6.44140  -2
   5   3   4 178.399 6.44140   1
  -8   3   4 537.475 18.7246  -2
   6   3   4 537.475 18.7246   1
  -9   3   4 147.633 5.47195  -2
   7   3   4 147.633 5.47195   1
 -10   3   4 84.4531 3.24580  -2
   8   3   4 84.4531 3.24580   1
 -11   3   4 181.645 6.33967  -2
   9   3   4 181.645 6.33967   1
 -12   3   4 160.264 5.70035  -2
  10   3   4 160.264 5.70035   1
 -13   3   4 371.397 14.0153  -2
  11   3   4 371.397 14.0153   1
 -14   3   4 103.769 5.33228  -2
  12   3   4 103.769 5.33228   1
 -15   3   4 6.69436 2.55382  -2
  13   3   4 6.69436 2.55382   1
 -16   3   4 11.5296 2.74031  -2
  14   3   4 11.5296 2.74031   1
 -17   3   4 35.9501 3.60992  -2
  15   3   4 35.9501 3.60992   1
 -18   3   4 109.407 6.40622  -2
  16   3   4 109.407 6.40622   1
 -19   3   4 50.2464 4.26235  -2
  17   3   4 50.2464 4.26235   1
 -20   3   4 0.17083 3.48675  -2
  18   3   4 0.17083 3.48675   1
  17   4   4 18.3932 5.34182  -2
 -19   4   4 18.3932 5.34182   1
  16   4   4 63.2062 4.18869  -2
 -18   4   4 63.2062 4.18869   1
  15   4   4 63.0933 4.51071  -2
 -17   4   4 63.0933 4.51071   1
  14   4   4 73.0745 4.91678  -2
 -16   4   4 73.0745 4.91678   1
  13   4   4 6.40684 2.61941  -2
 -15   4   4 6.40684 2.61941   1
  12   4   4 100.198 5.76870  -2
 -14   4   4 100.198 5.76870   1
  11   4   4 40.5956 3.32192  -2
 -13   4   4 40.5956 3.32192   1
  10   4   4 69.0955 4.35920  -2
 -12   4   4 69.0955 4.35920   1
   9   4   4 523.956 20.6610  -2
 -11   4   4 523.956 20.6610   1
   8   4   4 101.358 4.62120  -2
 -10   4   4 101.358 4.62120   1
   7   4   4 36.0698 2.25714  -2
  -9   4   4 36.0698 2.25714   1
   6   4   4 21.5012 1.79822  -2
  -8   4   4 21.5012 1.79822   1
   5   4   4 309.113 11.4719  -2
  -7   4   4 309.113 11.4719   1
   4   4   4 251.628 9.48960  -2
  -6   4   4 251.628 9.48960   1
   3   4   4 73.7423 3.24950  -2
  -5   4   4 73.7423 3.24950   1
   2   4   4 39.5616 2.14072  -2
  -4   4   4 39.5616 2.14072   1
   1   4   4 4.13859 1.34681  -2
  -3   4   4 4.13859 1.34681   1
   0   4   4 39.1841 2.17471  -2
  -2   4   4 39.1841 2.17471   1
  -1   4   4 215.029 8.16194  -2
  -1   4   4 215.029 8.16194   1
  -2   4   4 28.0778 1.82935  -2
   0   4   4 28.0778 1.82935   1
  -3   4   4 10.7278 1.29823  -2
   1   4   4 10.7278 1.29823   1
  -4   4   4 34.6093 1.83841  -2
   2   4   4 34.6093 1.83841   1
  -5   4   4 106.583 4.11676  -2
   3   4   4 106.583 4.11676   1
  -6   4   4 474.373 16.5040  -2
   4   4   4 474.373 16.5040   1
  -7   4   4 168.723 6.22031  -2
   5   4   4 168.723 6.22031   1
  -8   4   4 24.0997 1.70145  -2
   6   4   4 24.0997 1.70145   1
  -9   4   4 30.1609 1.92740  -2
   7   4   4 30.1609 1.92740   1
 -10   4   4 66.9648 3.22755  -2
   8   4   4 66.9648 3.22755   1
 -11   4   4 268.631 11.0733  -2
   9   4   4 268.631 11.0733   1
 -12   4   4 151.030 6.14500  -2
  10   4   4 151.030 6.14500   1
 -13   4   4 40.0857 2.50340  -2
  11   4   4 40.0857 2.50340   1
 -14   4   4 82.2950 4.17575  -2
  12   4   4 82.2950 4.17575   1
 -15   4   4 8.80433 2.38260  -2
  13   4   4 8.80433 2.38260   1
 -16   4   4 67.2886 4.75849  -2
  14   4   4 67.2886 4.75849   1
 -17   4   4 38.7879 3.81791  -2
  15   4   4 38.7879 3.81791   1
 -18   4   4 28.8113 3.64815  -2
  16   4   4 28.8113 3.64815   1
 -19   4   4 31.0648 4.66898  -2
  17   4   4 31.0648 4.66898   1
  15   5   4 11.7919 4.65381  -2
 -17   5   4 11.7919 4.65381   1
  14   5   4 12.2227 3.06742  -2
 -16   5   4 12.2227 3.06742   1
  13   5   4 46.6814 4.02398  -2
 -15   5   4 46.6814 4.02398   1
  12   5   4 12.9893 2.88810  -2
 -14   5   4 12.9893 2.88810   1
  11   5   4 15.3642 2.88600  -2
 -13   5   4 15.3642 2.88600   1
  10   5   4 24.7510 2.98076  -2
 -12   5   4 24.7510 2.98076   1
   9   5   4 35.9991 3.27970  -2
 -11   5   4 35.9991 3.27970   1
   8   5   4 20.4689 2.43959  -2
 -10   5   4 20.4689 2.43959   1
   7   5   4 15.2317 2.12812  -2
  -9   5   4 15.2317 2.12812   1
   6   5   4 6.84157 1.94314  -2
  -8   5   4 6.84157 1.94314   1
   5   5   4 27.7059 2.28166  -2
  -7   5   4 27.7059 2.28166   1
   4   5   4 13.1178 1.92225  -2
  -6   5   4 13.1178 1.92225   1
   3   5   4 45.8804 3.08604  -2
  -5   5   4 45.8804 3.08604   1
   2   5   4 14.0636 2.14565  -2
  -4   5   4 14.0636 2.14565   1
   1   5   4 29.3239 2.55426  -2
  -3   5   4 29.3239 2.55426   1
   0   5   4 110.467 5.43213  -2
  -2   5   4 110.467 5.43213   1
  -1   5   4 50.6339 3.21465  -2
  -1   5   4 50.6339 3.21465   1
  -2   5   4 56.3608 3.35246  -2
   0   5   4 56.3608 3.35246   1
  -3   5   4 22.6239 2.33934  -2
   1   5   4 22.6239 2.33934   1
  -4   5   4 16.5584 2.16881  -2
   2   5   4 16.5584 2.16881   1
  -5   5   4 61.5101 3.60677  -2
   3   5   4 61.5101 3.60677   1
  -6   5   4 24.5521 2.41255  -2
   4   5   4 24.5521 2.41255   1
  -7   5   4 52.0210 3.29094  -2
   5   5   4 52.0210 3.29094   1
  -8   5   4 2.63076 2.07021  -2
   6   5   4 2.63076 2.07021   1
  -9   5   4 27.3294 2.67030  -2
   7   5   4 27.3294 2.67030   1
 -10   5   4 11.4318 2.54840  -2
   8   5   4 11.4318 2.54840   1
 -11   5   4 59.8447 4.13503  -2
   9   5   4 59.8447 4.13503   1
 -12   5   4 16.0285 2.76640  -2
  10   5   4 16.0285 2.76640   1
 -13   5   4 24.9707 2.76885  -2
  11   5   4 24.9707 2.76885   1
 -14   5   4 14.6779 2.99488  -2
  12   5   4 14.6779 2.99488   1
 -15   5   4 19.2128 3.15421  -2
  13   5   4 19.2128 3.15421   1
 -16   5   4 13.0705 3.55607  -2
  14   5   4 13.0705 3.55607   1
  12   6   4 82.1622 8.21206  -2
 -14   6   4 82.1622 8.21206   1
  11   6   4 50.1770 4.64754  -2
 -13   6   4 50.1770 4.64754   1
  10   6   4 112.139 7.07452  -2
 -12   6   4 112.139 7.07452   1
   9   6   4 48.2325 4.47439  -2
 -11   6   4 48.2325 4.47439   1
   8   6   4 73.1257 5.40734  -2
 -10   6   4 73.1257 5.40734   1
   7   6   4 9.59950 2.76295  -2
  -9   6   4 9.59950 2.76295   1
   6   6   4 5.99520 2.66017  -2
  -8   6   4 5.99520 2.66017   1
   5   6   4 149.675 7.92702  -2
  -7   6   4 149.675 7.92702   1
   4   6   4 48.7633 3.81421  -2
  -6   6   4 48.7633 3.81421   1
   3   6   4 141.947 6.90163  -2
  -5   6   4 141.947 6.90163   1
   2   6   4 41.0903 3.13514  -2
  -4   6   4 41.0903 3.13514   1
   1   6   4 172.613 8.07814  -2
  -3   6   4 172.613 8.07814   1
   0   6   4 83.3618 4.60605  -2
  -2   6   4 83.3618 4.60605   1
  -1   6   4 36.5796 3.02343  -2
  -1   6   4 36.5796 3.02343   1
  -2   6   4 191.007 8.79085  -2
   0   6   4 191.007 8.79085   1
  -3   6   4 86.7388 4.73990  -2
   1   6   4 86.7388 4.73990   1
  -4   6   4 19.8728 2.63748  -2
   2   6   4 19.8728 2.63748   1
  -5   6   4 74.4724 4.70546  -2
   3   6   4 74.4724 4.70546   1
  -6   6   4 40.8951 3.48450  -2
   4   6   4 40.8951 3.48450   1
  -7   6   4 175.736 8.98059  -2
   5   6   4 175.736 8.98059   1
  -8   6   4 7.68143 2.67838  -2
   6   6   4 7.68143 2.67838   1
  -9   6   4 22.2104 3.05210  -2
   7   6   4 22.2104 3.05210   1
 -10   6   4 49.3485 4.02919  -2
   8   6   4 49.3485 4.02919   1
 -11   6   4 35.0459 3.45202  -2
   9   6   4 35.0459 3.45202   1
 -12   6   4 83.2957 5.30622  -2
  10   6   4 83.2957 5.30622   1
 -13   6   4 25.3499 3.98102  -2
  11   6   4 25.3499 3.98102   1
 -14   6   4 42.0755 8.63628  -2
  12   6   4 42.0755 8.63628   1
   7   7   4 7.45830 3.47120  -2
  -9   7   4 7.45830 3.47120   1
   6   7   4 42.0441 4.46757  -2
  -8   7   4 42.0441 4.46757   1
   5   7   4 37.2618 3.87446  -2
  -7   7   4 37.2618 3.87446   1
   4   7   4 25.0974 3.38414  -2
  -6   7   4 25.0974 3.38414   1
   3   7   4 7.78410 2.82349  -2
  -5   7   4 7.78410 2.82349   1
   2   7   4 18.8716 3.06316  -2
  -4   7   4 18.8716 3.06316   1
   1   7   4 111.649 6.36671  -2
  -3   7   4 111.649 6.36671   1
   0   7   4 24.6476 3.19485  -2
  -2   7   4 24.6476 3.19485   1
  -1   7   4 19.2791 3.04579  -2
  -1   7   4 19.2791 3.04579   1
  -2   7   4 47.5446 4.05213  -2
   0   7   4 47.5446 4.05213   1
  -3   7   4 50.3541 4.14307  -2
   1   7   4 50.3541 4.14307   1
  -4   7   4 42.3711 3.88296  -2
   2   7   4 42.3711 3.88296   1
  -5   7   4 13.2542 3.12140  -2
   3   7   4 13.2542 3.12140   1
  -6   7   4 38.8847 3.78479  -2
   4   7   4 38.8847 3.78479   1
  -7   7   4 18.5379 3.22211  -2
   5   7   4 18.5379 3.22211   1
  -8   7   4 61.9426 4.77552  -2
   6   7   4 61.9426 4.77552   1
  -9   7   4 20.1348 3.41282  -2
   7   7   4 20.1348 3.41282   1
 -22   0   5 0.05059 5.36910   1
 -21   0   5 2.75192 3.24815   1
 -20   0   5 3.07999 3.12051   1
 -19   0   5 1.44700 2.28644   1
 -18   0   5 -1.7556 2.19305   1
 -17   0   5 -0.0765 2.08634   1
 -16   0   5 -0.5282 1.68378   1
 -15   0   5 1.77878 1.51793   1
 -14   0   5 -1.0882 1.33508   1
 -13   0   5 -2.2244 1.20018   1
 -12   0   5 -0.0584 1.03424   1
 -11   0   5 -0.2372 0.85653   1
 -10   0   5 2.45169 0.85535   1
  -9   0   5 0.69685 0.79153   1
  -8   0   5 0.43796 0.75363   1
  -7   0   5 0.09539 0.68859   1
  -6   0   5 0.99960 0.64590   1
  -5   0   5 1.00975 0.51652   1
  -4   0   5 0.24434 0.47238   1
  -3   0   5 0.04795 0.45711   1
  -2   0   5 0.41148 0.40479   1
  -1   0   5 0.42636 0.38450   1
   0   0   5 0.40336 0.39370   1
   1   0   5 0.23353 0.36802   1
   2   0   5 -0.4991 0.42617   1
   3   0   5 0.52505 0.81096   1
   4   0   5 -0.5697 0.84636   1
   5   0   5 3.93073 1.06687   1
   6   0   5 0.63246 1.07387   1
   7   0   5 -0.9681 0.89042   1
   8   0   5 0.21706 0.54956   1
   9   0   5 0.25755 0.65792   1
  10   0   5 2.41499 1.12846   1
  11   0   5 -1.8260 1.43899   1
  12   0   5 -1.3167 1.60492   1
  13   0   5 0.93096 1.81734   1
  14   0   5 2.39747 2.02118   1
  15   0   5 0.98702 2.11867   1
  16   0   5 1.03145 2.24904   1
  17   0   5 2.17704 2.41891   1
  18   0   5 2.30619 3.46505   1
  19   0   5 -3.0212 3.40656   1
 -22   1   5 27.3184 5.47903   1
 -21   1   5 6.53637 3.00799   1
 -20   1   5 0.91355 1.89339   1
 -19   1   5 84.9856 5.24189   1
 -18   1   5 56.3809 3.58493   1
 -17   1   5 211.422 8.23342   1
 -16   1   5 58.8531 2.95866   1
 -15   1   5 249.509 9.54836   1
 -14   1   5 82.3284 3.31768   1
 -13   1   5 190.005 6.48814   1
 -12   1   5 352.100 12.3577   1
 -11   1   5 83.7306 3.25314   1
 -10   1   5 52.5279 2.10319   1
  -9   1   5 603.488 20.8992   1
  -8   1   5 1.00375 0.58672   1
  -7   1   5 3.12805 0.55034   1
  -6   1   5 0.78723 0.52543   1
  -5   1   5 2286.70 83.1081   1
  -4   1   5 124.667 4.36835   1
  -3   1   5 1237.59 42.4399   1
  -2   1   5 8025.31 274.813   1
  -1   1   5 1455.06 56.9247   1
   0   1   5 1358.07 46.8083   1
   1   1   5 6757.90 211.312   1
   2   1   5 590.019 20.4886   1
   3   1   5 244.288 7.74610   1
   4   1   5 60.5597 2.06432   1
   5   1   5 736.850 25.4728   1
   6   1   5 156.284 5.30289   1
   7   1   5 37.9121 1.56931   1
 -11   1   5 542.178 39.2929  -2
   8   1   5 542.178 39.2929   1
 -12   1   5 165.322 12.6008  -2
   9   1   5 165.322 12.6008   1
 -13   1   5 186.662 20.2096  -2
  10   1   5 186.662 20.2096   1
 -14   1   5 567.766 58.2912  -2
  11   1   5 567.766 58.2912   1
 -15   1   5 140.856 16.1736  -2
  12   1   5 140.856 16.1736   1
 -16   1   5 22.6679 7.06172  -2
  13   1   5 22.6679 7.06172   1
  14   1   5 11.6187 1.79070   1
  15   1   5 65.1798 3.88004   1
  16   1   5 121.654 6.18073   1
  17   1   5 79.9723 5.18417   1
  18   1   5 11.8801 2.44567   1
  19   1   5 14.5092 2.99707   1
 -21   2   5 12.2931 3.32318   1
 -20   2   5 64.5752 3.97479   1
 -19   2   5 19.4636 2.15773   1
 -18   2   5 153.866 6.75284   1
 -17   2   5 13.7015 1.68713   1
  13   2   5 301.425 32.4455  -2
 -16   2   5 301.425 32.4455   1
  12   2   5 113.278 14.1510  -2
 -15   2   5 113.278 14.1510   1
  11   2   5 132.999 11.3096  -2
 -14   2   5 132.999 11.3096   1
  10   2   5 171.839 19.8953  -2
 -13   2   5 171.839 19.8953   1
   9   2   5 548.203 56.4651  -2
 -12   2   5 548.203 56.4651   1
   8   2   5 545.188 39.1342  -2
 -11   2   5 545.188 39.1342   1
   7   2   5 387.419 28.6805  -2
 -10   2   5 387.419 28.6805   1
   6   2   5 105.622 8.04637  -2
  -9   2   5 105.622 8.04637   1
   5   2   5 86.1124 9.37095  -2
  -8   2   5 86.1124 9.37095   1
  -7   2   5 102.553 3.76299   1
  -6   2   5 1428.54 49.0742   1
  -5   2   5 95.7255 3.32415   1
  -4   2   5 53.0836 1.95348   1
  -3   2   5 87.4360 3.02932   1
  -2   2   5 283.744 9.33275   1
  -1   2   5 69.0490 2.35058   1
   0   2   5 35.6840 1.43971   1
   1   2   5 354.206 11.6301   1
   2   2   5 20.6724 1.13122   1
   3   2   5 1027.56 32.0315   1
   4   2   5 255.418 8.48495   1
  -8   2   5 81.9251 8.87852  -2
   5   2   5 81.9251 8.87852   1
  -9   2   5 131.677 8.09448  -2
   6   2   5 131.677 8.09448   1
 -10   2   5 273.372 19.8468  -2
   7   2   5 273.372 19.8468   1
 -11   2   5 216.801 16.2645  -2
   8   2   5 216.801 16.2645   1
 -12   2   5 396.212 28.7633  -2
   9   2   5 396.212 28.7633   1
 -13   2   5 213.178 22.9028  -2
  10   2   5 213.178 22.9028   1
 -14   2   5 204.988 22.2567  -2
  11   2   5 204.988 22.2567   1
 -15   2   5 146.682 16.6305  -2
  12   2   5 146.682 16.6305   1
 -16   2   5 215.524 23.5958  -2
  13   2   5 215.524 23.5958   1
  14   2   5 10.8643 2.06097   1
  15   2   5 11.8213 2.15785   1
  16   2   5 20.4937 2.59739   1
  17   2   5 48.7291 3.84179   1
  18   2   5 22.2489 2.85598   1
  19   2   5 1.14740 2.54657   1
 -20   3   5 2.60628 1.84545   1
  16   3   5 6.88413 9.13033  -2
 -19   3   5 6.88413 9.13033   1
  15   3   5 23.3693 9.70420  -2
 -18   3   5 23.3693 9.70420   1
  14   3   5 46.2106 10.8166  -2
 -17   3   5 46.2106 10.8166   1
  13   3   5 15.3857 8.95520  -2
 -16   3   5 15.3857 8.95520   1
  12   3   5 78.4239 12.6545  -2
 -15   3   5 78.4239 12.6545   1
  11   3   5 108.233 10.2854  -2
 -14   3   5 108.233 10.2854   1
  10   3   5 6.61677 6.68033  -2
 -13   3   5 6.61677 6.68033   1
   9   3   5 71.0623 7.69516  -2
 -12   3   5 71.0623 7.69516   1
   8   3   5 9.65604 2.10439  -2
 -11   3   5 9.65604 2.10439   1
   7   3   5 90.9553 6.34520  -2
 -10   3   5 90.9553 6.34520   1
   6   3   5 14.3616 2.52099  -2
  -9   3   5 14.3616 2.52099   1
   5   3   5 26.8342 2.49915  -2
  -8   3   5 26.8342 2.49915   1
   4   3   5 61.7943 4.60328  -2
  -7   3   5 61.7943 4.60328   1
   3   3   5 235.480 17.6568  -2
  -6   3   5 235.480 17.6568   1
   2   3   5 272.451 14.4160  -2
  -5   3   5 272.451 14.4160   1
   1   3   5 105.968 6.92363  -2
  -4   3   5 105.968 6.92363   1
   0   3   5 80.3954 6.89182  -2
  -3   3   5 80.3954 6.89182   1
  -1   3   5 35.7354 6.44796  -2
  -2   3   5 35.7354 6.44796   1
  -2   3   5 25.2016 6.12125  -2
  -1   3   5 25.2016 6.12125   1
  -3   3   5 92.1772 11.5944  -2
   0   3   5 92.1772 11.5944   1
  -4   3   5 79.8589 7.20985  -2
   1   3   5 79.8589 7.20985   1
  -5   3   5 669.281 51.5869  -2
   2   3   5 669.281 51.5869   1
  -6   3   5 373.421 41.0956  -2
   3   3   5 373.421 41.0956   1
  -7   3   5 38.3503 4.41720  -2
   4   3   5 38.3503 4.41720   1
  -8   3   5 42.3993 6.70387  -2
   5   3   5 42.3993 6.70387   1
  -9   3   5 27.5154 3.56879  -2
   6   3   5 27.5154 3.56879   1
 -10   3   5 67.2654 4.37618  -2
   7   3   5 67.2654 4.37618   1
 -11   3   5 21.6660 2.41596  -2
   8   3   5 21.6660 2.41596   1
 -12   3   5 56.8024 4.01783  -2
   9   3   5 56.8024 4.01783   1
 -13   3   5 19.4802 3.50750  -2
  10   3   5 19.4802 3.50750   1
 -14   3   5 52.6414 6.03967  -2
  11   3   5 52.6414 6.03967   1
 -15   3   5 38.9057 8.13829  -2
  12   3   5 38.9057 8.13829   1
 -16   3   5 27.4953 7.81104  -2
  13   3   5 27.4953 7.81104   1
 -17   3   5 56.1752 9.95028  -2
  14   3   5 56.1752 9.95028   1
 -18   3   5 2.57195 7.37495  -2
  15   3   5 2.57195 7.37495   1
  16   3   5 9.08819 2.30980   1
  17   3   5 3.54159 2.26132   1
  18   3   5 1.89968 2.28380   1
  16   4   5 17.0267 11.7060  -2
 -19   4   5 17.0267 11.7060   1
  15   4   5 22.6898 11.7112  -2
 -18   4   5 22.6898 11.7112   1
  14   4   5 13.7275 10.8661  -2
 -17   4   5 13.7275 10.8661   1
  13   4   5 146.446 19.8108  -2
 -16   4   5 146.446 19.8108   1
  12   4   5 72.7924 8.61473  -2
 -15   4   5 72.7924 8.61473   1
  11   4   5 4.02440 6.74033  -2
 -14   4   5 4.02440 6.74033   1
  10   4   5 34.3238 7.94620  -2
 -13   4   5 34.3238 7.94620   1
   9   4   5 100.344 12.9131  -2
 -12   4   5 100.344 12.9131   1
   8   4   5 61.7802 9.39033  -2
 -11   4   5 61.7802 9.39033   1
   7   4   5 514.279 26.6241  -2
 -10   4   5 514.279 26.6241   1
   6   4   5 70.0279 4.41514  -2
  -9   4   5 70.0279 4.41514   1
   5   4   5 98.9666 6.11263  -2
  -8   4   5 98.9666 6.11263   1
   4   4   5 49.7796 3.85001  -2
  -7   4   5 49.7796 3.85001   1
   3   4   5 99.7042 4.91513  -2
  -6   4   5 99.7042 4.91513   1
   2   4   5 246.408 11.7258  -2
  -5   4   5 246.408 11.7258   1
   1   4   5 19.9778 2.69776  -2
  -4   4   5 19.9778 2.69776   1
   0   4   5 105.512 6.06402  -2
  -3   4   5 105.512 6.06402   1
  -1   4   5 172.131 9.57613  -2
  -2   4   5 172.131 9.57613   1
  -2   4   5 327.670 15.3499  -2
  -1   4   5 327.670 15.3499   1
  -3   4   5 59.6519 3.42557  -2
   0   4   5 59.6519 3.42557   1
  -4   4   5 8.91733 1.73807  -2
   1   4   5 8.91733 1.73807   1
  -5   4   5 122.368 5.87831  -2
   2   4   5 122.368 5.87831   1
  -6   4   5 64.7086 3.73399  -2
   3   4   5 64.7086 3.73399   1
  -7   4   5 87.0932 4.57939  -2
   4   4   5 87.0932 4.57939   1
  -8   4   5 114.469 6.09056  -2
   5   4   5 114.469 6.09056   1
  -9   4   5 86.9224 4.90385  -2
   6   4   5 86.9224 4.90385   1
 -10   4   5 276.395 13.0258  -2
   7   4   5 276.395 13.0258   1
 -11   4   5 132.472 10.7359  -2
   8   4   5 132.472 10.7359   1
 -12   4   5 133.274 8.93736  -2
   9   4   5 133.274 8.93736   1
 -13   4   5 42.1348 5.65474  -2
  10   4   5 42.1348 5.65474   1
 -14   4   5 19.3567 4.77287  -2
  11   4   5 19.3567 4.77287   1
 -15   4   5 53.2766 6.57475  -2
  12   4   5 53.2766 6.57475   1
 -16   4   5 82.8836 12.1570  -2
  13   4   5 82.8836 12.1570   1
 -17   4   5 15.0115 8.29298  -2
  14   4   5 15.0115 8.29298   1
  15   4   5 1.64154 2.08692   1
  16   4   5 16.0074 2.69700   1
  14   5   5 9.15253 7.07384  -2
 -17   5   5 9.15253 7.07384   1
  13   5   5 24.2541 7.29578  -2
 -16   5   5 24.2541 7.29578   1
  12   5   5 49.2678 8.11430  -2
 -15   5   5 49.2678 8.11430   1
  11   5   5 47.6130 9.72449  -2
 -14   5   5 47.6130 9.72449   1
  10   5   5 36.2830 8.64588  -2
 -13   5   5 36.2830 8.64588   1
   9   5   5 259.031 28.4529  -2
 -12   5   5 259.031 28.4529   1
   8   5   5 122.217 15.2817  -2
 -11   5   5 122.217 15.2817   1
   7   5   5 54.0939 9.21135  -2
 -10   5   5 54.0939 9.21135   1
   6   5   5 56.8300 5.63222  -2
  -9   5   5 56.8300 5.63222   1
   5   5   5 139.020 9.72463  -2
  -8   5   5 139.020 9.72463   1
   4   5   5 66.1076 4.97319  -2
  -7   5   5 66.1076 4.97319   1
   3   5   5 114.000 6.98499  -2
  -6   5   5 114.000 6.98499   1
   2   5   5 198.465 9.96322  -2
  -5   5   5 198.465 9.96322   1
   1   5   5 51.8463 4.57664  -2
  -4   5   5 51.8463 4.57664   1
   0   5   5 43.8552 4.68682  -2
  -3   5   5 43.8552 4.68682   1
  -1   5   5 939.482 48.4738  -2
  -2   5   5 939.482 48.4738   1
  -2   5   5 936.942 48.3495  -2
  -1   5   5 936.942 48.3495   1
  -3   5   5 71.7073 5.39877  -2
   0   5   5 71.7073 5.39877   1
  -4   5   5 119.074 7.47467  -2
   1   5   5 119.074 7.47467   1
  -5   5   5 435.636 23.0286  -2
   2   5   5 435.636 23.0286   1
  -6   5   5 68.4413 5.35135  -2
   3   5   5 68.4413 5.35135   1
  -7   5   5 163.466 9.46774  -2
   4   5   5 163.466 9.46774   1
  -8   5   5 133.844 11.3994  -2
   5   5   5 133.844 11.3994   1
  -9   5   5 60.3658 6.82498  -2
   6   5   5 60.3658 6.82498   1
 -10   5   5 60.4201 7.18200  -2
   7   5   5 60.4201 7.18200   1
 -11   5   5 50.7875 6.71803  -2
   8   5   5 50.7875 6.71803   1
 -12   5   5 173.339 14.2420  -2
   9   5   5 173.339 14.2420   1
 -13   5   5 42.5834 6.52307  -2
  10   5   5 42.5834 6.52307   1
 -14   5   5 69.3555 6.72968  -2
  11   5   5 69.3555 6.72968   1
 -15   5   5 31.7729 5.11652  -2
  12   5   5 31.7729 5.11652   1
 -16   5   5 53.2212 7.44556  -2
  13   5   5 53.2212 7.44556   1
 -17   5   5 15.7807 9.94181  -2
  14   5   5 15.7807 9.94181   1
  11   6   5 41.2075 10.1521  -2
 -14   6   5 41.2075 10.1521   1
  10   6   5 35.6797 9.49973  -2
 -13   6   5 35.6797 9.49973   1
   9   6   5 60.3303 10.8353  -2
 -12   6   5 60.3303 10.8353   1
   8   6   5 70.6569 11.4193  -2
 -11   6   5 70.6569 11.4193   1
   7   6   5 52.6153 9.94538  -2
 -10   6   5 52.6153 9.94538   1
   6   6   5 8.88065 7.66964  -2
  -9   6   5 8.88065 7.66964   1
   5   6   5 15.1072 4.68065  -2
  -8   6   5 15.1072 4.68065   1
   4   6   5 88.0792 7.49383  -2
  -7   6   5 88.0792 7.49383   1
   3   6   5 16.4184 4.52384  -2
  -6   6   5 16.4184 4.52384   1
   2   6   5 42.4932 5.45042  -2
  -5   6   5 42.4932 5.45042   1
   1   6   5 95.8933 7.81816  -2
  -4   6   5 95.8933 7.81816   1
   0   6   5 176.293 12.0528  -2
  -3   6   5 176.293 12.0528   1
  -1   6   5 9.25728 4.36735  -2
  -2   6   5 9.25728 4.36735   1
  -2   6   5 10.9900 4.48709  -2
  -1   6   5 10.9900 4.48709   1
  -3   6   5 67.6133 6.47051  -2
   0   6   5 67.6133 6.47051   1
  -4   6   5 41.5577 5.51454  -2
   1   6   5 41.5577 5.51454   1
  -5   6   5 31.9838 5.14085  -2
   2   6   5 31.9838 5.14085   1
  -6   6   5 16.4427 4.80410  -2
   3   6   5 16.4427 4.80410   1
  -7   6   5 50.1110 5.95763  -2
   4   6   5 50.1110 5.95763   1
  -8   6   5 0.52075 4.72238  -2
   5   6   5 0.52075 4.72238   1
  -9   6   5 20.2239 5.78716  -2
   6   6   5 20.2239 5.78716   1
 -10   6   5 35.1396 6.49389  -2
   7   6   5 35.1396 6.49389   1
 -11   6   5 41.3127 7.02055  -2
   8   6   5 41.3127 7.02055   1
 -12   6   5 24.6953 6.37421  -2
   9   6   5 24.6953 6.37421   1
 -13   6   5 17.7344 6.12582  -2
  10   6   5 17.7344 6.12582   1
 -14   6   5 15.0600 7.10179  -2
  11   6   5 15.0600 7.10179   1
   6   7   5 44.9751 9.98740  -2
  -9   7   5 44.9751 9.98740   1
   5   7   5 -0.9261 7.70190  -2
  -8   7   5 -0.9261 7.70190   1
   4   7   5 6.04930 5.62099  -2
  -7   7   5 6.04930 5.62099   1
   3   7   5 25.8039 5.44437  -2
  -6   7   5 25.8039 5.44437   1
   2   7   5 136.537 10.2873  -2
  -5   7   5 136.537 10.2873   1
   1   7   5 59.3535 6.51500  -2
  -4   7   5 59.3535 6.51500   1
   0   7   5 10.1621 5.00579  -2
  -3   7   5 10.1621 5.00579   1
  -1   7   5 4.40265 5.11044  -2
  -2   7   5 4.40265 5.11044   1
  -2   7   5 0.18372 4.95969  -2
  -1   7   5 0.18372 4.95969   1
  -3   7   5 24.8032 5.57531  -2
   0   7   5 24.8032 5.57531   1
  -4   7   5 128.018 10.0370  -2
   1   7   5 128.018 10.0370   1
  -5   7   5 77.5672 7.57054  -2
   2   7   5 77.5672 7.57054   1
  -6   7   5 26.3299 5.73379  -2
   3   7   5 26.3299 5.73379   1
  -7   7   5 10.9107 5.39986  -2
   4   7   5 10.9107 5.39986   1
  -8   7   5 -4.7535 5.40309  -2
   5   7   5 -4.7535 5.40309   1
  -9   7   5 20.5271 10.3291  -2
   6   7   5 20.5271 10.3291   1
  19   0   6 58.7747 11.3588  -2
 -22   0   6 58.7747 11.3588   1
  18   0   6 221.730 18.3387  -2
 -21   0   6 221.730 18.3387   1
  17   0   6 2.99536 3.82173  -2
 -20   0   6 2.99536 3.82173   1
  16   0   6 82.4334 6.85492  -2
 -19   0   6 82.4334 6.85492   1
  15   0   6 87.0870 6.98951  -2
 -18   0   6 87.0870 6.98951   1
  14   0   6 76.1051 6.29039  -2
 -17   0   6 76.1051 6.29039   1
  13   0   6 576.045 34.5388  -2
 -16   0   6 576.045 34.5388   1
  12   0   6 230.508 14.7215  -2
 -15   0   6 230.508 14.7215   1
  11   0   6 120.462 6.88525  -2
 -14   0   6 120.462 6.88525   1
  10   0   6 41.4216 3.20604  -2
 -13   0   6 41.4216 3.20604   1
   9   0   6 1203.42 62.4297  -2
 -12   0   6 1203.42 62.4297   1
   8   0   6 777.483 40.4475  -2
 -11   0   6 777.483 40.4475   1
   7   0   6 540.780 28.2098  -2
 -10   0   6 540.780 28.2098   1
   6   0   6 322.930 16.9368  -2
  -9   0   6 322.930 16.9368   1
   5   0   6 828.162 42.8571  -2
  -8   0   6 828.162 42.8571   1
   4   0   6 2676.09 138.030  -2
  -7   0   6 2676.09 138.030   1
   3   0   6 3222.10 147.818  -2
  -6   0   6 3222.10 147.818   1
   2   0   6 976.289 44.8209  -2
  -5   0   6 976.289 44.8209   1
   1   0   6 456.614 20.9944  -2
  -4   0   6 456.614 20.9944   1
   0   0   6 1398.10 72.5447  -2
  -3   0   6 1398.10 72.5447   1
  -1   0   6 8401.08 387.242  -2
  -2   0   6 8401.08 387.242   1
  -2   0   6 5826.86 300.177  -2
  -1   0   6 5826.86 300.177   1
  -3   0   6 3673.60 189.314  -2
   0   0   6 3673.60 189.314   1
  -4   0   6 213.946 11.4564  -2
   1   0   6 213.946 11.4564   1
  -5   0   6 380.021 22.1692  -2
   2   0   6 380.021 22.1692   1
  -6   0   6 1345.47 97.0701  -2
   3   0   6 1345.47 97.0701   1
  -7   0   6 2565.01 154.127  -2
   4   0   6 2565.01 154.127   1
  -8   0   6 505.977 30.8167  -2
   5   0   6 505.977 30.8167   1
  -9   0   6 229.242 14.2798  -2
   6   0   6 229.242 14.2798   1
 -10   0   6 256.133 15.9152  -2
   7   0   6 256.133 15.9152   1
 -11   0   6 405.260 24.8881  -2
   8   0   6 405.260 24.8881   1
 -12   0   6 610.175 37.2603  -2
   9   0   6 610.175 37.2603   1
 -13   0   6 64.2607 5.09285  -2
  10   0   6 64.2607 5.09285   1
 -14   0   6 57.0641 4.85317  -2
  11   0   6 57.0641 4.85317   1
 -15   0   6 129.653 8.94509  -2
  12   0   6 129.653 8.94509   1
 -16   0   6 877.857 53.2437  -2
  13   0   6 877.857 53.2437   1
 -17   0   6 102.084 7.57776  -2
  14   0   6 102.084 7.57776   1
 -18   0   6 109.251 8.15849  -2
  15   0   6 109.251 8.15849   1
 -19   0   6 115.893 8.61069  -2
  16   0   6 115.893 8.61069   1
 -20   0   6 5.24444 3.94676  -2
  17   0   6 5.24444 3.94676   1
 -21   0   6 95.6128 9.73620  -2
  18   0   6 95.6128 9.73620   1
 -22   0   6 62.8287 7.99425  -2
  19   0   6 62.8287 7.99425   1
  19   1   6 21.4945 6.33593  -2
 -22   1   6 21.4945 6.33593   1
  18   1   6 5.29574 3.41266  -2
 -21   1   6 5.29574 3.41266   1
  17   1   6 2.32850 2.88474  -2
 -20   1   6 2.32850 2.88474   1
  16   1   6 100.207 5.88761  -2
 -19   1   6 100.207 5.88761   1
  15   1   6 146.582 7.97943  -2
 -18   1   6 146.582 7.97943   1
  14   1   6 46.8980 3.74538  -2
 -17   1   6 46.8980 3.74538   1
  13   1   6 30.3193 2.70688  -2
 -16   1   6 30.3193 2.70688   1
  12   1   6 50.1761 3.30791  -2
 -15   1   6 50.1761 3.30791   1
  11   1   6 48.0655 3.17232  -2
 -14   1   6 48.0655 3.17232   1
  10   1   6 123.943 5.95090  -2
 -13   1   6 123.943 5.95090   1
   9   1   6 50.1329 2.45418  -2
 -12   1   6 50.1329 2.45418   1
   8   1   6 13.1403 1.28516  -2
 -11   1   6 13.1403 1.28516   1
   7   1   6 91.7013 3.31951  -2
 -10   1   6 91.7013 3.31951   1
   6   1   6 588.045 19.2680  -2
  -9   1   6 588.045 19.2680   1
   5   1   6 601.901 23.4009  -2
  -8   1   6 601.901 23.4009   1
   4   1   6 62.5121 2.61101  -2
  -7   1   6 62.5121 2.61101   1
   3   1   6 48.8706 2.14494  -2
  -6   1   6 48.8706 2.14494   1
   2   1   6 376.516 13.8401  -2
  -5   1   6 376.516 13.8401   1
   1   1   6 187.515 8.08880  -2
  -4   1   6 187.515 8.08880   1
   0   1   6 450.676 15.5058  -2
  -3   1   6 450.676 15.5058   1
  -1   1   6 210.554 8.38363  -2
  -2   1   6 210.554 8.38363   1
  -2   1   6 112.868 5.03681  -2
  -1   1   6 112.868 5.03681   1
  -3   1   6 347.463 12.1421  -2
   0   1   6 347.463 12.1421   1
  -4   1   6 376.298 12.4125  -2
   1   1   6 376.298 12.4125   1
  -5   1   6 274.491 8.65552  -2
   2   1   6 274.491 8.65552   1
  -6   1   6 51.6635 1.98082  -2
   3   1   6 51.6635 1.98082   1
  -7   1   6 54.4405 2.20466  -2
   4   1   6 54.4405 2.20466   1
  -8   1   6 1180.78 46.3415  -2
   5   1   6 1180.78 46.3415   1
  -9   1   6 298.952 13.5688  -2
   6   1   6 298.952 13.5688   1
 -10   1   6 144.385 5.02537  -2
   7   1   6 144.385 5.02537   1
 -11   1   6 27.8113 1.61082  -2
   8   1   6 27.8113 1.61082   1
 -12   1   6 98.4559 4.51348  -2
   9   1   6 98.4559 4.51348   1
 -13   1   6 59.7925 3.44236  -2
  10   1   6 59.7925 3.44236   1
 -14   1   6 37.1512 2.75862  -2
  11   1   6 37.1512 2.75862   1
 -15   1   6 20.6923 2.39875  -2
  12   1   6 20.6923 2.39875   1
 -16   1   6 30.0271 2.79653  -2
  13   1   6 30.0271 2.79653   1
 -17   1   6 36.7404 3.11386  -2
  14   1   6 36.7404 3.11386   1
 -18   1   6 74.9183 4.47802  -2
  15   1   6 74.9183 4.47802   1
 -19   1   6 177.863 8.55777  -2
  16   1   6 177.863 8.55777   1
 -20   1   6 2.30364 3.03498  -2
  17   1   6 2.30364 3.03498   1
 -21   1   6 2.78203 3.22136  -2
  18   1   6 2.78203 3.22136   1
 -22   1   6 12.3056 3.97047  -2
  19   1   6 12.3056 3.97047   1
  18   2   6 11.6706 3.68164  -2
 -21   2   6 11.6706 3.68164   1
  17   2   6 -1.5847 3.21901  -2
 -20   2   6 -1.5847 3.21901   1
  16   2   6 24.1521 3.79307  -2
 -19   2   6 24.1521 3.79307   1
  15   2   6 93.6391 6.40869  -2
 -18   2   6 93.6391 6.40869   1
  14   2   6 13.5789 2.65842  -2
 -17   2   6 13.5789 2.65842   1
  13   2   6 25.0224 2.44141  -2
 -16   2   6 25.0224 2.44141   1
  12   2   6 15.4422 2.01936  -2
 -15   2   6 15.4422 2.01936   1
  11   2   6 221.323 8.53367  -2
 -14   2   6 221.323 8.53367   1
  10   2   6 281.533 10.6883  -2
 -13   2   6 281.533 10.6883   1
   9   2   6 61.7519 3.23434  -2
 -12   2   6 61.7519 3.23434   1
   8   2   6 80.5655 3.35824  -2
 -11   2   6 80.5655 3.35824   1
   7   2   6 282.285 10.0058  -2
 -10   2   6 282.285 10.0058   1
   6   2   6 21.0787 1.29868  -2
  -9   2   6 21.0787 1.29868   1
   5   2   6 437.965 15.2081  -2
  -8   2   6 437.965 15.2081   1
   4   2   6 212.483 7.10930  -2
  -7   2   6 212.483 7.10930   1
   3   2   6 928.970 30.3169  -2
  -6   2   6 928.970 30.3169   1
   2   2   6 220.133 7.34917  -2
  -5   2   6 220.133 7.34917   1
   1   2   6 137.698 4.68940  -2
  -4   2   6 137.698 4.68940   1
   0   2   6 1049.73 34.1288  -2
  -3   2   6 1049.73 34.1288   1
  -1   2   6 521.323 17.0801  -2
  -2   2   6 521.323 17.0801   1
  -2   2   6 329.668 10.4091  -2
  -1   2   6 329.668 10.4091   1
  -3   2   6 429.502 15.7072  -2
   0   2   6 429.502 15.7072   1
  -4   2   6 256.814 8.18285  -2
   1   2   6 256.814 8.18285   1
  -5   2   6 431.751 13.5816  -2
   2   2   6 431.751 13.5816   1
  -6   2   6 1171.21 38.1277  -2
   3   2   6 1171.21 38.1277   1
  -7   2   6 177.616 5.99854  -2
   4   2   6 177.616 5.99854   1
  -8   2   6 187.092 8.08885  -2
   5   2   6 187.092 8.08885   1
  -9   2   6 34.7486 1.66801  -2
   6   2   6 34.7486 1.66801   1
 -10   2   6 119.468 4.66112  -2
   7   2   6 119.468 4.66112   1
 -11   2   6 200.596 7.68265  -2
   8   2   6 200.596 7.68265   1
 -12   2   6 33.5645 2.24087  -2
   9   2   6 33.5645 2.24087   1
 -13   2   6 331.649 14.5505  -2
  10   2   6 331.649 14.5505   1
 -14   2   6 323.993 14.3386  -2
  11   2   6 323.993 14.3386   1
 -15   2   6 26.6007 2.66811  -2
  12   2   6 26.6007 2.66811   1
 -16   2   6 44.3110 3.26636  -2
  13   2   6 44.3110 3.26636   1
 -17   2   6 15.7622 2.63335  -2
  14   2   6 15.7622 2.63335   1
 -18   2   6 56.3307 4.35253  -2
  15   2   6 56.3307 4.35253   1
 -19   2   6 23.8408 3.41906  -2
  16   2   6 23.8408 3.41906   1
 -20   2   6 1.54507 3.18013  -2
  17   2   6 1.54507 3.18013   1
 -21   2   6 17.2173 3.59988  -2
  18   2   6 17.2173 3.59988   1
  17   3   6 11.9123 3.66070  -2
 -20   3   6 11.9123 3.66070   1
  16   3   6 120.526 6.89980  -2
 -19   3   6 120.526 6.89980   1
  15   3   6 66.6774 3.87393  -2
 -18   3   6 66.6774 3.87393   1
  14   3   6 9.55668 2.37765  -2
 -17   3   6 9.55668 2.37765   1
  13   3   6 -0.4994 2.15918  -2
 -16   3   6 -0.4994 2.15918   1
  12   3   6 105.949 5.49169  -2
 -15   3   6 105.949 5.49169   1
  11   3   6 107.153 5.04831  -2
 -14   3   6 107.153 5.04831   1
  10   3   6 159.211 6.91267  -2
 -13   3   6 159.211 6.91267   1
   9   3   6 101.001 5.01131  -2
 -12   3   6 101.001 5.01131   1
   8   3   6 214.441 8.90699  -2
 -11   3   6 214.441 8.90699   1
   7   3   6 223.098 8.06626  -2
 -10   3   6 223.098 8.06626   1
   6   3   6 201.543 7.33094  -2
  -9   3   6 201.543 7.33094   1
   5   3   6 129.070 4.84279  -2
  -8   3   6 129.070 4.84279   1
   4   3   6 52.0908 2.35375  -2
  -7   3   6 52.0908 2.35375   1
   3   3   6 31.9040 1.59173  -2
  -6   3   6 31.9040 1.59173   1
   2   3   6 147.424 5.13361  -2
  -5   3   6 147.424 5.13361   1
   1   3   6 35.5763 1.67570  -2
  -4   3   6 35.5763 1.67570   1
   0   3   6 599.500 18.8485  -2
  -3   3   6 599.500 18.8485   1
  -1   3   6 113.147 4.01397  -2
  -2   3   6 113.147 4.01397   1
  -2   3   6 224.183 7.45995  -2
  -1   3   6 224.183 7.45995   1
  -3   3   6 751.645 24.5548  -2
   0   3   6 751.645 24.5548   1
  -4   3   6 38.5311 1.68608  -2
   1   3   6 38.5311 1.68608   1
  -5   3   6 309.906 9.84198  -2
   2   3   6 309.906 9.84198   1
  -6   3   6 43.8801 1.93072  -2
   3   3   6 43.8801 1.93072   1
  -7   3   6 50.1728 2.13612  -2
   4   3   6 50.1728 2.13612   1
  -8   3   6 181.367 6.58183  -2
   5   3   6 181.367 6.58183   1
  -9   3   6 344.392 12.1327  -2
   6   3   6 344.392 12.1327   1
 -10   3   6 114.739 4.19923  -2
   7   3   6 114.739 4.19923   1
 -11   3   6 208.566 7.62606  -2
   8   3   6 208.566 7.62606   1
 -12   3   6 198.828 7.30226  -2
   9   3   6 198.828 7.30226   1
 -13   3   6 213.078 8.39648  -2
  10   3   6 213.078 8.39648   1
 -14   3   6 56.4023 3.62143  -2
  11   3   6 56.4023 3.62143   1
 -15   3   6 64.6131 4.01017  -2
  12   3   6 64.6131 4.01017   1
 -16   3   6 -1.0500 2.66441  -2
  13   3   6 -1.0500 2.66441   1
 -17   3   6 6.10129 2.92690  -2
  14   3   6 6.10129 2.92690   1
 -18   3   6 89.2232 5.71546  -2
  15   3   6 89.2232 5.71546   1
 -19   3   6 55.4845 4.57739  -2
  16   3   6 55.4845 4.57739   1
 -20   3   6 6.01066 3.33090  -2
  17   3   6 6.01066 3.33090   1
  16   4   6 47.1846 3.88696  -2
 -19   4   6 47.1846 3.88696   1
  15   4   6 11.4044 2.92498  -2
 -18   4   6 11.4044 2.92498   1
  14   4   6 19.7748 3.30811  -2
 -17   4   6 19.7748 3.30811   1
  13   4   6 63.8362 4.58821  -2
 -16   4   6 63.8362 4.58821   1
  12   4   6 16.5275 2.99238  -2
 -15   4   6 16.5275 2.99238   1
  11   4   6 16.5931 2.86590  -2
 -14   4   6 16.5931 2.86590   1
  10   4   6 43.1418 3.58101  -2
 -13   4   6 43.1418 3.58101   1
   9   4   6 24.4631 2.97484  -2
 -12   4   6 24.4631 2.97484   1
   8   4   6 60.3384 3.64340  -2
 -11   4   6 60.3384 3.64340   1
   7   4   6 268.923 11.8378  -2
 -10   4   6 268.923 11.8378   1
   6   4   6 23.7989 2.11744  -2
  -9   4   6 23.7989 2.11744   1
   5   4   6 28.4301 2.05307  -2
  -8   4   6 28.4301 2.05307   1
   4   4   6 63.7819 3.03097  -2
  -7   4   6 63.7819 3.03097   1
   3   4   6 268.040 10.1038  -2
  -6   4   6 268.040 10.1038   1
   2   4   6 26.6847 1.91679  -2
  -5   4   6 26.6847 1.91679   1
   1   4   6 59.1098 2.85097  -2
  -4   4   6 59.1098 2.85097   1
   0   4   6 35.0669 2.10598  -2
  -3   4   6 35.0669 2.10598   1
  -1   4   6 119.303 4.83283  -2
  -2   4   6 119.303 4.83283   1
  -2   4   6 140.590 5.58158  -2
  -1   4   6 140.590 5.58158   1
  -3   4   6 32.7757 2.04860  -2
   0   4   6 32.7757 2.04860   1
  -4   4   6 45.9343 2.27258  -2
   1   4   6 45.9343 2.27258   1
  -5   4   6 25.7817 1.74669  -2
   2   4   6 25.7817 1.74669   1
  -6   4   6 147.676 5.54607  -2
   3   4   6 147.676 5.54607   1
  -7   4   6 65.6380 2.90385  -2
   4   4   6 65.6380 2.90385   1
  -8   4   6 15.2911 1.59196  -2
   5   4   6 15.2911 1.59196   1
  -9   4   6 39.4906 2.35375  -2
   6   4   6 39.4906 2.35375   1
 -10   4   6 162.158 6.46201  -2
   7   4   6 162.158 6.46201   1
 -11   4   6 96.1600 4.22373  -2
   8   4   6 96.1600 4.22373   1
 -12   4   6 34.2024 2.38444  -2
   9   4   6 34.2024 2.38444   1
 -13   4   6 62.3875 3.52212  -2
  10   4   6 62.3875 3.52212   1
 -14   4   6 29.6546 2.67478  -2
  11   4   6 29.6546 2.67478   1
 -15   4   6 21.8786 2.84354  -2
  12   4   6 21.8786 2.84354   1
 -16   4   6 59.2772 4.46321  -2
  13   4   6 59.2772 4.46321   1
 -17   4   6 14.9853 3.28724  -2
  14   4   6 14.9853 3.28724   1
 -18   4   6 14.0701 3.28687  -2
  15   4   6 14.0701 3.28687   1
 -19   4   6 32.1456 3.96153  -2
  16   4   6 32.1456 3.96153   1
  14   5   6 -0.8542 4.58555  -2
 -17   5   6 -0.8542 4.58555   1
  13   5   6 23.4319 3.55727  -2
 -16   5   6 23.4319 3.55727   1
  12   5   6 5.74453 3.02993  -2
 -15   5   6 5.74453 3.02993   1
  11   5   6 3.45185 2.91175  -2
 -14   5   6 3.45185 2.91175   1
  10   5   6 41.3262 3.70435  -2
 -13   5   6 41.3262 3.70435   1
   9   5   6 4.71227 2.73296  -2
 -12   5   6 4.71227 2.73296   1
   8   5   6 42.8218 3.62517  -2
 -11   5   6 42.8218 3.62517   1
   7   5   6 68.9192 4.49058  -2
 -10   5   6 68.9192 4.49058   1
   6   5   6 125.387 6.78037  -2
  -9   5   6 125.387 6.78037   1
   5   5   6 201.302 9.12474  -2
  -8   5   6 201.302 9.12474   1
   4   5   6 24.8592 2.47913  -2
  -7   5   6 24.8592 2.47913   1
   3   5   6 33.1895 2.68196  -2
  -6   5   6 33.1895 2.68196   1
   2   5   6 65.9390 3.76310  -2
  -5   5   6 65.9390 3.76310   1
   1   5   6 184.114 7.77963  -2
  -4   5   6 184.114 7.77963   1
   0   5   6 94.1196 4.47339  -2
  -3   5   6 94.1196 4.47339   1
  -1   5   6 297.109 12.9575  -2
  -2   5   6 297.109 12.9575   1
  -2   5   6 324.239 14.0730  -2
  -1   5   6 324.239 14.0730   1
  -3   5   6 94.9089 4.89328  -2
   0   5   6 94.9089 4.89328   1
  -4   5   6 120.131 5.84266  -2
   1   5   6 120.131 5.84266   1
  -5   5   6 30.5902 2.99847  -2
   2   5   6 30.5902 2.99847   1
  -6   5   6 27.0292 2.83348  -2
   3   5   6 27.0292 2.83348   1
  -7   5   6 31.5105 2.93523  -2
   4   5   6 31.5105 2.93523   1
  -8   5   6 187.230 9.34907  -2
   5   5   6 187.230 9.34907   1
  -9   5   6 105.656 5.86209  -2
   6   5   6 105.656 5.86209   1
 -10   5   6 86.1483 5.17148  -2
   7   5   6 86.1483 5.17148   1
 -11   5   6 21.8976 2.96610  -2
   8   5   6 21.8976 2.96610   1
 -12   5   6 11.1591 2.75922  -2
   9   5   6 11.1591 2.75922   1
 -13   5   6 25.5095 3.39504  -2
  10   5   6 25.5095 3.39504   1
 -14   5   6 13.3335 3.14801  -2
  11   5   6 13.3335 3.14801   1
 -15   5   6 12.1185 3.73805  -2
  12   5   6 12.1185 3.73805   1
 -16   5   6 12.7253 3.62374  -2
  13   5   6 12.7253 3.62374   1
 -14   6   6 5.27341 3.16756   1
  10   6   6 39.7637 4.44138  -2
 -13   6   6 39.7637 4.44138   1
   9   6   6 35.1590 4.24591  -2
 -12   6   6 35.1590 4.24591   1
   8   6   6 54.1218 4.82599  -2
 -11   6   6 54.1218 4.82599   1
   7   6   6 48.2363 4.55398  -2
 -10   6   6 48.2363 4.55398   1
   6   6   6 3.57066 3.24939  -2
  -9   6   6 3.57066 3.24939   1
   5   6   6 128.277 7.80923  -2
  -8   6   6 128.277 7.80923   1
   4   6   6 29.3949 3.22872  -2
  -7   6   6 29.3949 3.22872   1
   3   6   6 142.105 7.57412  -2
  -6   6   6 142.105 7.57412   1
   2   6   6 147.352 7.81068  -2
  -5   6   6 147.352 7.81068   1
   1   6   6 24.4452 3.07846  -2
  -4   6   6 24.4452 3.07846   1
   0   6   6 189.829 9.62286  -2
  -3   6   6 189.829 9.62286   1
  -1   6   6 24.1092 3.06974  -2
  -2   6   6 24.1092 3.06974   1
  -2   6   6 15.7393 2.97212  -2
  -1   6   6 15.7393 2.97212   1
  -3   6   6 110.623 6.20371  -2
   0   6   6 110.623 6.20371   1
  -4   6   6 24.9054 3.27442  -2
   1   6   6 24.9054 3.27442   1
  -5   6   6 106.719 6.03952  -2
   2   6   6 106.719 6.03952   1
  -6   6   6 92.2142 5.41745  -2
   3   6   6 92.2142 5.41745   1
  -7   6   6 33.4415 3.37873  -2
   4   6   6 33.4415 3.37873   1
  -8   6   6 65.0298 4.46919  -2
   5   6   6 65.0298 4.46919   1
  -9   6   6 10.4649 2.97148  -2
   6   6   6 10.4649 2.97148   1
 -10   6   6 63.5240 4.58235  -2
   7   6   6 63.5240 4.58235   1
 -11   6   6 36.4369 3.81626  -2
   8   6   6 36.4369 3.81626   1
 -12   6   6 28.9624 4.38803  -2
   9   6   6 28.9624 4.38803   1
 -13   6   6 24.0226 4.17583  -2
  10   6   6 24.0226 4.17583   1
   5   7   6 21.8276 3.95470  -2
  -8   7   6 21.8276 3.95470   1
   4   7   6 5.61028 3.53311  -2
  -7   7   6 5.61028 3.53311   1
   3   7   6 14.7084 3.28190  -2
  -6   7   6 14.7084 3.28190   1
   2   7   6 41.7296 3.99213  -2
  -5   7   6 41.7296 3.99213   1
   1   7   6 37.1740 3.85212  -2
  -4   7   6 37.1740 3.85212   1
   0   7   6 29.3782 3.68580  -2
  -3   7   6 29.3782 3.68580   1
  -1   7   6 8.46994 3.20327  -2
  -2   7   6 8.46994 3.20327   1
  -2   7   6 11.5960 3.27302  -2
  -1   7   6 11.5960 3.27302   1
  -3   7   6 57.4615 4.47989  -2
   0   7   6 57.4615 4.47989   1
  -4   7   6 75.9591 5.18161  -2
   1   7   6 75.9591 5.18161   1
  -5   7   6 22.8811 3.44791  -2
   2   7   6 22.8811 3.44791   1
  -6   7   6 5.71565 3.14630  -2
   3   7   6 5.71565 3.14630   1
  -7   7   6 3.53725 3.13498  -2
   4   7   6 3.53725 3.13498   1
  -8   7   6 57.0512 4.62097  -2
   5   7   6 57.0512 4.62097   1
 -22   0   7 -1.1647 3.13162   1
  17   0   7 21.7081 6.00590  -2
 -21   0   7 21.7081 6.00590   1
  16   0   7 3.94502 5.27364  -2
 -20   0   7 3.94502 5.27364   1
  15   0   7 -1.8127 5.02614  -2
 -19   0   7 -1.8127 5.02614   1
  14   0   7 28.5193 5.53717  -2
 -18   0   7 28.5193 5.53717   1
  13   0   7 -7.2562 4.19961  -2
 -17   0   7 -7.2562 4.19961   1
  12   0   7 -2.0434 4.23760  -2
 -16   0   7 -2.0434 4.23760   1
  11   0   7 2.39883 3.84423  -2
 -15   0   7 2.39883 3.84423   1
  10   0   7 29.2650 4.63480  -2
 -14   0   7 29.2650 4.63480   1
   9   0   7 0.36450 4.82299  -2
 -13   0   7 0.36450 4.82299   1
   8   0   7 12.3995 5.01603  -2
 -12   0   7 12.3995 5.01603   1
 -11   0   7 -0.0883 0.93324   1
   6   0   7 1.53422 2.72975  -2
 -10   0   7 1.53422 2.72975   1
   5   0   7 -0.2962 2.08681  -2
  -9   0   7 -0.2962 2.08681   1
   4   0   7 -11.181 4.18410  -2
  -8   0   7 -11.181 4.18410   1
   3   0   7 -3.5930 1.53449  -2
  -7   0   7 -3.5930 1.53449   1
  -6   0   7 -1.2063 0.51595   1
  -5   0   7 -0.4985 0.51383   1
  -4   0   7 0.60481 0.46761   1
  -3   0   7 -0.1959 0.45944   1
  -2   0   7 -0.4227 0.44665   1
  -1   0   7 -0.1647 0.44522   1
   0   0   7 0.58932 0.45933   1
  -5   0   7 -1.6454 2.28671  -2
   1   0   7 -1.6454 2.28671   1
  -6   0   7 2.78252 2.57934  -2
   2   0   7 2.78252 2.57934   1
   3   0   7 -0.0524 0.44557   1
   4   0   7 -0.8450 0.80225   1
   5   0   7 0.01798 1.00959   1
   6   0   7 -0.6056 1.09188   1
   7   0   7 14.0132 1.75859   1
   8   0   7 1.62676 1.34944   1
 -13   0   7 1.70580 3.99325  -2
   9   0   7 1.70580 3.99325   1
 -14   0   7 29.3953 6.05725  -2
  10   0   7 29.3953 6.05725   1
 -15   0   7 -2.4986 5.06497  -2
  11   0   7 -2.4986 5.06497   1
 -16   0   7 -0.6378 5.37292  -2
  12   0   7 -0.6378 5.37292   1
 -17   0   7 1.29677 5.75254  -2
  13   0   7 1.29677 5.75254   1
 -18   0   7 21.7803 6.93828  -2
  14   0   7 21.7803 6.93828   1
 -19   0   7 3.91790 6.72256  -2
  15   0   7 3.91790 6.72256   1
 -20   0   7 9.06161 7.64614  -2
  16   0   7 9.06161 7.64614   1
 -21   0   7 21.3480 8.49257  -2
  17   0   7 21.3480 8.49257   1
  18   0   7 3.33656 3.52144   1
 -22   1   7 4.16926 2.44684   1
  17   1   7 16.5399 5.45170  -2
 -21   1   7 16.5399 5.45170   1
  16   1   7 38.0668 5.02721  -2
 -20   1   7 38.0668 5.02721   1
  15   1   7 39.9970 4.45046  -2
 -19   1   7 39.9970 4.45046   1
  14   1   7 175.919 11.6689  -2
 -18   1   7 175.919 11.6689   1
  13   1   7 20.8246 4.08711  -2
 -17   1   7 20.8246 4.08711   1
  12   1   7 306.696 18.8254  -2
 -16   1   7 306.696 18.8254   1
  11   1   7 104.090 6.44301  -2
 -15   1   7 104.090 6.44301   1
  10   1   7 441.802 22.9944  -2
 -14   1   7 441.802 22.9944   1
   9   1   7 360.246 18.8870  -2
 -13   1   7 360.246 18.8870   1
   8   1   7 96.0924 6.72858  -2
 -12   1   7 96.0924 6.72858   1
   7   1   7 62.1800 4.09509  -2
 -11   1   7 62.1800 4.09509   1
   6   1   7 504.566 36.8279  -2
 -10   1   7 504.566 36.8279   1
   5   1   7 151.011 16.5536  -2
  -9   1   7 151.011 16.5536   1
   4   1   7 1001.08 75.3347  -2
  -8   1   7 1001.08 75.3347   1
   3   1   7 375.743 29.3296  -2
  -7   1   7 375.743 29.3296   1
   2   1   7 1459.70 158.564  -2
  -6   1   7 1459.70 158.564   1
  -5   1   7 992.277 36.1928   1
  -4   1   7 575.037 19.8265   1
  -3   1   7 134.543 4.52607   1
  -2   1   7 107.530 4.11033   1
  -1   1   7 -0.1716 0.53447   1
  -4   1   7 192.973 19.8456  -2
   0   1   7 192.973 19.8456   1
  -5   1   7 836.648 84.4143  -2
   1   1   7 836.648 84.4143   1
  -6   1   7 700.072 76.3363  -2
   2   1   7 700.072 76.3363   1
  -7   1   7 537.342 56.0717  -2
   3   1   7 537.342 56.0717   1
   4   1   7 266.908 9.34524   1
  -9   1   7 90.7038 11.3089  -2
   5   1   7 90.7038 11.3089   1
   6   1   7 296.056 12.8341   1
 -11   1   7 183.727 11.4575  -2
   7   1   7 183.727 11.4575   1
 -12   1   7 81.7579 9.83208  -2
   8   1   7 81.7579 9.83208   1
 -13   1   7 360.242 37.3319  -2
   9   1   7 360.242 37.3319   1
 -14   1   7 181.735 19.8387  -2
  10   1   7 181.735 19.8387   1
 -15   1   7 269.758 28.5965  -2
  11   1   7 269.758 28.5965   1
 -16   1   7 196.261 15.2571  -2
  12   1   7 196.261 15.2571   1
 -17   1   7 13.2991 4.60853  -2
  13   1   7 13.2991 4.60853   1
 -18   1   7 101.185 9.28180  -2
  14   1   7 101.185 9.28180   1
 -19   1   7 15.7514 5.26541  -2
  15   1   7 15.7514 5.26541   1
 -20   1   7 22.5749 7.92226  -2
  16   1   7 22.5749 7.92226   1
 -21   1   7 1.54911 7.82495  -2
  17   1   7 1.54911 7.82495   1
 -22   1   7 15.2559 8.56870  -2
  18   1   7 15.2559 8.56870   1
 -21   2   7 83.8340 4.85614   1
  16   2   7 12.3264 5.47733  -2
 -20   2   7 12.3264 5.47733   1
  15   2   7 14.2756 5.33437  -2
 -19   2   7 14.2756 5.33437   1
  14   2   7 5.12002 4.13292  -2
 -18   2   7 5.12002 4.13292   1
  13   2   7 428.151 25.9573  -2
 -17   2   7 428.151 25.9573   1
  12   2   7 2.60191 3.26693  -2
 -16   2   7 2.60191 3.26693   1
  11   2   7 163.123 9.33726  -2
 -15   2   7 163.123 9.33726   1
  10   2   7 464.220 28.0388  -2
 -14   2   7 464.220 28.0388   1
   9   2   7 25.3841 3.77610  -2
 -13   2   7 25.3841 3.77610   1
   8   2   7 92.7261 8.34000  -2
 -12   2   7 92.7261 8.34000   1
   7   2   7 65.0023 6.42156  -2
 -11   2   7 65.0023 6.42156   1
   6   2   7 201.330 12.6165  -2
 -10   2   7 201.330 12.6165   1
   5   2   7 41.0894 2.69675  -2
  -9   2   7 41.0894 2.69675   1
   4   2   7 59.7140 4.05045  -2
  -8   2   7 59.7140 4.05045   1
   3   2   7 993.752 46.5320  -2
  -7   2   7 993.752 46.5320   1
   2   2   7 53.5658 2.80693  -2
  -6   2   7 53.5658 2.80693   1
   1   2   7 623.094 28.8680  -2
  -5   2   7 623.094 28.8680   1
   0   2   7 1325.84 99.3720  -2
  -4   2   7 1325.84 99.3720   1
  -1   2   7 1707.00 123.249  -2
  -3   2   7 1707.00 123.249   1
  -2   2   7 162.675 12.4947  -2
  -2   2   7 162.675 12.4947   1
  -3   2   7 1092.36 83.8304  -2
  -1   2   7 1092.36 83.8304   1
  -4   2   7 2698.38 271.720  -2
   0   2   7 2698.38 271.720   1
  -5   2   7 846.141 52.2784  -2
   1   2   7 846.141 52.2784   1
  -6   2   7 40.8157 2.29607  -2
   2   2   7 40.8157 2.29607   1
  -7   2   7 781.403 40.4808  -2
   3   2   7 781.403 40.4808   1
  -8   2   7 34.8724 2.26672  -2
   4   2   7 34.8724 2.26672   1
  -9   2   7 71.4302 3.45539  -2
   5   2   7 71.4302 3.45539   1
 -10   2   7 131.225 5.90216  -2
   6   2   7 131.225 5.90216   1
 -11   2   7 117.976 5.46047  -2
   7   2   7 117.976 5.46047   1
 -12   2   7 116.653 7.80249  -2
   8   2   7 116.653 7.80249   1
 -13   2   7 53.9601 5.93469  -2
   9   2   7 53.9601 5.93469   1
 -14   2   7 543.329 40.1156  -2
  10   2   7 543.329 40.1156   1
 -15   2   7 263.357 20.2300  -2
  11   2   7 263.357 20.2300   1
 -16   2   7 8.38297 4.35995  -2
  12   2   7 8.38297 4.35995   1
 -17   2   7 203.569 16.1908  -2
  13   2   7 203.569 16.1908   1
 -18   2   7 14.1338 4.20377  -2
  14   2   7 14.1338 4.20377   1
 -19   2   7 11.3898 7.91511  -2
  15   2   7 11.3898 7.91511   1
 -20   2   7 17.7751 5.94047  -2
  16   2   7 17.7751 5.94047   1
 -21   2   7 35.1766 9.77981  -2
  17   2   7 35.1766 9.77981   1
  18   2   7 14.9209 2.71843   1
 -20   3   7 20.0407 2.64964   1
  15   3   7 8.91064 5.50035  -2
 -19   3   7 8.91064 5.50035   1
  14   3   7 5.44227 3.86187  -2
 -18   3   7 5.44227 3.86187   1
  13   3   7 2.34846 3.63214  -2
 -17   3   7 2.34846 3.63214   1
  12   3   7 0.71261 3.48446  -2
 -16   3   7 0.71261 3.48446   1
  11   3   7 157.654 9.33721  -2
 -15   3   7 157.654 9.33721   1
  10   3   7 65.5883 5.09958  -2
 -14   3   7 65.5883 5.09958   1
   9   3   7 191.626 12.3930  -2
 -13   3   7 191.626 12.3930   1
   8   3   7 46.4013 4.19956  -2
 -12   3   7 46.4013 4.19956   1
   7   3   7 86.6765 5.69725  -2
 -11   3   7 86.6765 5.69725   1
   6   3   7 38.2796 2.69387  -2
 -10   3   7 38.2796 2.69387   1
   5   3   7 154.109 6.91833  -2
  -9   3   7 154.109 6.91833   1
   4   3   7 20.4214 2.05193  -2
  -8   3   7 20.4214 2.05193   1
   3   3   7 12.8202 1.60154  -2
  -7   3   7 12.8202 1.60154   1
   2   3   7 46.9717 2.30189  -2
  -6   3   7 46.9717 2.30189   1
   1   3   7 34.5087 1.95304  -2
  -5   3   7 34.5087 1.95304   1
   0   3   7 220.439 9.03210  -2
  -4   3   7 220.439 9.03210   1
  -1   3   7 100.649 3.83911  -2
  -3   3   7 100.649 3.83911   1
  -2   3   7 357.618 14.1524  -2
  -2   3   7 357.618 14.1524   1
  -3   3   7 248.679 9.99795  -2
  -1   3   7 248.679 9.99795   1
  -4   3   7 108.942 5.05244  -2
   0   3   7 108.942 5.05244   1
  -5   3   7 73.4008 3.44958  -2
   1   3   7 73.4008 3.44958   1
  -6   3   7 40.8868 2.07269  -2
   2   3   7 40.8868 2.07269   1
  -7   3   7 8.33786 1.54050  -2
   3   3   7 8.33786 1.54050   1
  -8   3   7 22.3378 1.97491  -2
   4   3   7 22.3378 1.97491   1
  -9   3   7 93.5382 4.63182  -2
   5   3   7 93.5382 4.63182   1
 -10   3   7 50.4393 3.37521  -2
   6   3   7 50.4393 3.37521   1
 -11   3   7 43.8720 2.76141  -2
   7   3   7 43.8720 2.76141   1
 -12   3   7 38.4105 3.17516  -2
   8   3   7 38.4105 3.17516   1
 -13   3   7 188.970 9.48547  -2
   9   3   7 188.970 9.48547   1
 -14   3   7 121.771 10.4820  -2
  10   3   7 121.771 10.4820   1
 -15   3   7 70.3785 7.36813  -2
  11   3   7 70.3785 7.36813   1
 -16   3   7 8.51874 4.21736  -2
  12   3   7 8.51874 4.21736   1
 -17   3   7 -2.3556 4.37540  -2
  13   3   7 -2.3556 4.37540   1
 -18   3   7 12.0285 4.96414  -2
  14   3   7 12.0285 4.96414   1
 -19   3   7 13.7771 5.16946  -2
  15   3   7 13.7771 5.16946   1
 -20   3   7 14.7350 6.19507  -2
  16   3   7 14.7350 6.19507   1
  17   3   7 3.96527 2.37989   1
  15   4   7 12.1180 8.63381  -2
 -19   4   7 12.1180 8.63381   1
  14   4   7 16.9561 5.19096  -2
 -18   4   7 16.9561 5.19096   1
  13   4   7 179.308 12.4001  -2
 -17   4   7 179.308 12.4001   1
  12   4   7 54.5716 6.10455  -2
 -16   4   7 54.5716 6.10455   1
  11   4   7 58.6616 6.13278  -2
 -15   4   7 58.6616 6.13278   1
  10   4   7 77.2120 6.72757  -2
 -14   4   7 77.2120 6.72757   1
   9   4   7 94.8229 7.65492  -2
 -13   4   7 94.8229 7.65492   1
   8   4   7 99.7373 6.71123  -2
 -12   4   7 99.7373 6.71123   1
   7   4   7 107.166 8.00906  -2
 -11   4   7 107.166 8.00906   1
   6   4   7 90.8856 5.98586  -2
 -10   4   7 90.8856 5.98586   1
   5   4   7 24.5017 2.74568  -2
  -9   4   7 24.5017 2.74568   1
   4   4   7 21.0722 2.66785  -2
  -8   4   7 21.0722 2.66785   1
   3   4   7 211.140 10.2832  -2
  -7   4   7 211.140 10.2832   1
   2   4   7 220.301 9.81658  -2
  -6   4   7 220.301 9.81658   1
   1   4   7 19.5155 2.32603  -2
  -5   4   7 19.5155 2.32603   1
   0   4   7 220.423 9.72878  -2
  -4   4   7 220.423 9.72878   1
  -1   4   7 123.768 5.34001  -2
  -3   4   7 123.768 5.34001   1
  -2   4   7 21.7706 2.14915  -2
  -2   4   7 21.7706 2.14915   1
  -3   4   7 54.2713 3.03649  -2
  -1   4   7 54.2713 3.03649   1
  -4   4   7 441.845 17.5078  -2
   0   4   7 441.845 17.5078   1
  -5   4   7 26.9309 2.09795  -2
   1   4   7 26.9309 2.09795   1
  -6   4   7 265.590 10.7840  -2
   2   4   7 265.590 10.7840   1
  -7   4   7 219.928 9.88854  -2
   3   4   7 219.928 9.88854   1
  -8   4   7 35.1758 2.73677  -2
   4   4   7 35.1758 2.73677   1
  -9   4   7 42.9420 2.97251  -2
   5   4   7 42.9420 2.97251   1
 -10   4   7 131.244 6.45351  -2
   6   4   7 131.244 6.45351   1
 -11   4   7 201.113 9.16716  -2
   7   4   7 201.113 9.16716   1
 -12   4   7 46.9096 3.65204  -2
   8   4   7 46.9096 3.65204   1
 -13   4   7 78.2495 5.01200  -2
   9   4   7 78.2495 5.01200   1
 -14   4   7 125.431 7.84841  -2
  10   4   7 125.431 7.84841   1
 -15   4   7 45.9747 4.61736  -2
  11   4   7 45.9747 4.61736   1
 -16   4   7 71.4741 6.64100  -2
  12   4   7 71.4741 6.64100   1
 -17   4   7 216.291 17.6665  -2
  13   4   7 216.291 17.6665   1
 -18   4   7 37.1578 5.92203  -2
  14   4   7 37.1578 5.92203   1
 -19   4   7 10.4753 5.56709  -2
  15   4   7 10.4753 5.56709   1
  13   5   7 12.1141 9.22303  -2
 -17   5   7 12.1141 9.22303   1
  12   5   7 56.7705 6.60464  -2
 -16   5   7 56.7705 6.60464   1
  11   5   7 13.7406 5.09901  -2
 -15   5   7 13.7406 5.09901   1
  10   5   7 85.3366 6.55727  -2
 -14   5   7 85.3366 6.55727   1
   9   5   7 62.8637 5.51516  -2
 -13   5   7 62.8637 5.51516   1
   8   5   7 4.71037 3.69311  -2
 -12   5   7 4.71037 3.69311   1
   7   5   7 13.1544 4.18655  -2
 -11   5   7 13.1544 4.18655   1
   6   5   7 233.454 15.1286  -2
 -10   5   7 233.454 15.1286   1
   5   5   7 49.8985 5.21200  -2
  -9   5   7 49.8985 5.21200   1
   4   5   7 137.844 8.31000  -2
  -8   5   7 137.844 8.31000   1
   3   5   7 10.7036 3.07310  -2
  -7   5   7 10.7036 3.07310   1
   2   5   7 191.399 10.9172  -2
  -6   5   7 191.399 10.9172   1
   1   5   7 162.620 8.36850  -2
  -5   5   7 162.620 8.36850   1
   0   5   7 481.931 20.8224  -2
  -4   5   7 481.931 20.8224   1
  -1   5   7 22.8941 2.69934  -2
  -3   5   7 22.8941 2.69934   1
  -2   5   7 75.9226 4.30556  -2
  -2   5   7 75.9226 4.30556   1
  -3   5   7 24.5237 3.20732  -2
  -1   5   7 24.5237 3.20732   1
  -4   5   7 243.924 11.8929  -2
   0   5   7 243.924 11.8929   1
  -5   5   7 118.434 6.46221  -2
   1   5   7 118.434 6.46221   1
  -6   5   7 78.2406 5.53140  -2
   2   5   7 78.2406 5.53140   1
  -7   5   7 6.98478 3.11683  -2
   3   5   7 6.98478 3.11683   1
  -8   5   7 78.1815 5.61565  -2
   4   5   7 78.1815 5.61565   1
  -9   5   7 111.195 7.17823  -2
   5   5   7 111.195 7.17823   1
 -10   5   7 218.663 12.3399  -2
   6   5   7 218.663 12.3399   1
 -11   5   7 16.3473 3.69035  -2
   7   5   7 16.3473 3.69035   1
 -12   5   7 28.1412 5.16843  -2
   8   5   7 28.1412 5.16843   1
 -13   5   7 64.9659 6.74130  -2
   9   5   7 64.9659 6.74130   1
 -14   5   7 163.806 10.1140  -2
  10   5   7 163.806 10.1140   1
 -15   5   7 25.4263 4.69691  -2
  11   5   7 25.4263 4.69691   1
 -16   5   7 88.5643 7.02281  -2
  12   5   7 88.5643 7.02281   1
  13   5   7 17.2771 3.11232   1
   9   6   7 5.11716 6.30993  -2
 -13   6   7 5.11716 6.30993   1
   8   6   7 91.3290 9.93291  -2
 -12   6   7 91.3290 9.93291   1
   7   6   7 31.5866 5.56107  -2
 -11   6   7 31.5866 5.56107   1
   6   6   7 71.0306 8.87198  -2
 -10   6   7 71.0306 8.87198   1
   5   6   7 48.5225 7.24729  -2
  -9   6   7 48.5225 7.24729   1
   4   6   7 20.9713 5.84254  -2
  -8   6   7 20.9713 5.84254   1
   3   6   7 17.6018 4.55959  -2
  -7   6   7 17.6018 4.55959   1
   2   6   7 57.6127 5.08092  -2
  -6   6   7 57.6127 5.08092   1
   1   6   7 22.8413 4.00063  -2
  -5   6   7 22.8413 4.00063   1
   0   6   7 44.0442 4.61680  -2
  -4   6   7 44.0442 4.61680   1
  -1   6   7 32.3379 4.18963  -2
  -3   6   7 32.3379 4.18963   1
  -2   6   7 205.596 11.6815  -2
  -2   6   7 205.596 11.6815   1
  -3   6   7 16.1488 3.83860  -2
  -1   6   7 16.1488 3.83860   1
  -4   6   7 28.6935 4.14183  -2
   0   6   7 28.6935 4.14183   1
  -5   6   7 57.2945 5.11495  -2
   1   6   7 57.2945 5.11495   1
  -6   6   7 27.5301 4.14062  -2
   2   6   7 27.5301 4.14062   1
  -7   6   7 16.8919 3.79740  -2
   3   6   7 16.8919 3.79740   1
  -8   6   7 10.6413 3.91049  -2
   4   6   7 10.6413 3.91049   1
  -9   6   7 32.6459 4.42543  -2
   5   6   7 32.6459 4.42543   1
 -10   6   7 29.0684 4.49752  -2
   6   6   7 29.0684 4.49752   1
 -11   6   7 16.4090 4.07840  -2
   7   6   7 16.4090 4.07840   1
 -12   6   7 40.0053 6.28789  -2
   8   6   7 40.0053 6.28789   1
 -13   6   7 4.70859 5.29491  -2
   9   6   7 4.70859 5.29491   1
  10   6   7 3.21435 2.38839   1
   4   7   7 5.20200 6.46740  -2
  -8   7   7 5.20200 6.46740   1
   3   7   7 9.27539 6.17933  -2
  -7   7   7 9.27539 6.17933   1
   2   7   7 28.9567 5.44409  -2
  -6   7   7 28.9567 5.44409   1
   1   7   7 0.58565 4.13160  -2
  -5   7   7 0.58565 4.13160   1
   0   7   7 18.4647 4.35962  -2
  -4   7   7 18.4647 4.35962   1
  -1   7   7 32.9290 4.76260  -2
  -3   7   7 32.9290 4.76260   1
  -2   7   7 -1.3823 4.08025  -2
  -2   7   7 -1.3823 4.08025   1
  -3   7   7 21.6357 4.39944  -2
  -1   7   7 21.6357 4.39944   1
  -4   7   7 40.1981 4.88324  -2
   0   7   7 40.1981 4.88324   1
  -5   7   7 -0.2963 4.06762  -2
   1   7   7 -0.2963 4.06762   1
  -6   7   7 19.6257 4.39689  -2
   2   7   7 19.6257 4.39689   1
  -7   7   7 8.67353 4.36961  -2
   3   7   7 8.67353 4.36961   1
  -8   7   7 32.5816 4.85900  -2
   4   7   7 32.5816 4.85900   1
  18   0   8 54.9433 7.58512  -2
 -22   0   8 54.9433 7.58512   1
  17   0   8 73.1868 6.90822  -2
 -21   0   8 73.1868 6.90822   1
  16   0   8 18.3397 4.46676  -2
 -20   0   8 18.3397 4.46676   1
  15   0   8 27.6641 4.56616  -2
 -19   0   8 27.6641 4.56616   1
  14   0   8 191.257 12.7494  -2
 -18   0   8 191.257 12.7494   1
  13   0   8 186.090 12.4636  -2
 -17   0   8 186.090 12.4636   1
  12   0   8 133.091 9.35887  -2
 -16   0   8 133.091 9.35887   1
  11   0   8 88.3641 6.64528  -2
 -15   0   8 88.3641 6.64528   1
  10   0   8 42.7867 4.22863  -2
 -14   0   8 42.7867 4.22863   1
   9   0   8 429.907 26.3310  -2
 -13   0   8 429.907 26.3310   1
   8   0   8 359.983 19.0620  -2
 -12   0   8 359.983 19.0620   1
   7   0   8 148.917 8.24660  -2
 -11   0   8 148.917 8.24660   1
   6   0   8 214.676 11.5193  -2
 -10   0   8 214.676 11.5193   1
   5   0   8 325.643 17.1024  -2
  -9   0   8 325.643 17.1024   1
   4   0   8 149.865 9.05141  -2
  -8   0   8 149.865 9.05141   1
   3   0   8 800.505 36.7996  -2
  -7   0   8 800.505 36.7996   1
   2   0   8 401.518 24.2530  -2
  -6   0   8 401.518 24.2530   1
   1   0   8 321.537 13.7060  -2
  -5   0   8 321.537 13.7060   1
   0   0   8 625.299 28.9620  -2
  -4   0   8 625.299 28.9620   1
  -1   0   8 1642.06 75.3652  -2
  -3   0   8 1642.06 75.3652   1
  -2   0   8 102.484 6.60093  -2
  -2   0   8 102.484 6.60093   1
  -3   0   8 2731.31 140.855  -2
  -1   0   8 2731.31 140.855   1
  -4   0   8 780.244 40.4088  -2
   0   0   8 780.244 40.4088   1
  -5   0   8 398.212 16.9618  -2
   1   0   8 398.212 16.9618   1
  -6   0   8 899.912 41.4366  -2
   2   0   8 899.912 41.4366   1
  -7   0   8 234.725 13.7709  -2
   3   0   8 234.725 13.7709   1
  -8   0   8 326.921 17.2033  -2
   4   0   8 326.921 17.2033   1
  -9   0   8 342.315 21.0296  -2
   5   0   8 342.315 21.0296   1
 -10   0   8 213.278 13.2859  -2
   6   0   8 213.278 13.2859   1
 -11   0   8 58.7296 4.61100  -2
   7   0   8 58.7296 4.61100   1
 -12   0   8 141.206 9.39795  -2
   8   0   8 141.206 9.39795   1
 -13   0   8 235.136 14.9741  -2
   9   0   8 235.136 14.9741   1
 -14   0   8 38.9657 4.00802  -2
  10   0   8 38.9657 4.00802   1
 -15   0   8 98.6537 7.20365  -2
  11   0   8 98.6537 7.20365   1
 -16   0   8 67.8436 5.77190  -2
  12   0   8 67.8436 5.77190   1
 -17   0   8 82.3544 6.65241  -2
  13   0   8 82.3544 6.65241   1
 -18   0   8 228.533 15.0223  -2
  14   0   8 228.533 15.0223   1
 -19   0   8 18.8618 3.97292  -2
  15   0   8 18.8618 3.97292   1
 -20   0   8 43.9319 5.22552  -2
  16   0   8 43.9319 5.22552   1
 -21   0   8 27.5760 4.82749  -2
  17   0   8 27.5760 4.82749   1
 -22   0   8 38.2118 6.84479  -2
  18   0   8 38.2118 6.84479   1
  18   1   8 5.00168 3.54389  -2
 -22   1   8 5.00168 3.54389   1
  17   1   8 2.45457 3.35410  -2
 -21   1   8 2.45457 3.35410   1
  16   1   8 8.17795 2.94492  -2
 -20   1   8 8.17795 2.94492   1
  15   1   8 161.374 7.93136  -2
 -19   1   8 161.374 7.93136   1
  14   1   8 40.8361 3.43469  -2
 -18   1   8 40.8361 3.43469   1
  13   1   8 51.8925 3.96601  -2
 -17   1   8 51.8925 3.96601   1
  12   1   8 58.0764 4.20424  -2
 -16   1   8 58.0764 4.20424   1
  11   1   8 240.042 11.9975  -2
 -15   1   8 240.042 11.9975   1
  10   1   8 32.7765 2.78580  -2
 -14   1   8 32.7765 2.78580   1
   9   1   8 107.594 5.35390  -2
 -13   1   8 107.594 5.35390   1
   8   1   8 41.2483 2.54039  -2
 -12   1   8 41.2483 2.54039   1
   7   1   8 129.973 5.60093  -2
 -11   1   8 129.973 5.60093   1
   6   1   8 284.060 10.6643  -2
 -10   1   8 284.060 10.6643   1
   5   1   8 145.419 5.64910  -2
  -9   1   8 145.419 5.64910   1
   4   1   8 8.47420 1.12997  -2
  -8   1   8 8.47420 1.12997   1
   3   1   8 10.7379 1.12307  -2
  -7   1   8 10.7379 1.12307   1
   2   1   8 351.451 15.1292  -2
  -6   1   8 351.451 15.1292   1
   1   1   8 168.269 7.36114  -2
  -5   1   8 168.269 7.36114   1
   0   1   8 45.4189 1.79610  -2
  -4   1   8 45.4189 1.79610   1
  -1   1   8 1188.35 43.4368  -2
  -3   1   8 1188.35 43.4368   1
  -2   1   8 93.8153 3.74073  -2
  -2   1   8 93.8153 3.74073   1
  -3   1   8 2071.93 81.0829  -2
  -1   1   8 2071.93 81.0829   1
  -4   1   8 84.9458 2.79795  -2
   0   1   8 84.9458 2.79795   1
  -5   1   8 463.283 14.5346  -2
   1   1   8 463.283 14.5346   1
  -6   1   8 735.743 24.1753  -2
   2   1   8 735.743 24.1753   1
  -7   1   8 3.49050 0.85858  -2
   3   1   8 3.49050 0.85858   1
  -8   1   8 7.57011 0.90099  -2
   4   1   8 7.57011 0.90099   1
  -9   1   8 71.3767 3.27672  -2
   5   1   8 71.3767 3.27672   1
 -10   1   8 280.764 10.5650  -2
   6   1   8 280.764 10.5650   1
 -11   1   8 110.948 5.33763  -2
   7   1   8 110.948 5.33763   1
 -12   1   8 55.5830 3.23805  -2
   8   1   8 55.5830 3.23805   1
 -13   1   8 124.588 6.00963  -2
   9   1   8 124.588 6.00963   1
 -14   1   8 61.4514 3.63416  -2
  10   1   8 61.4514 3.63416   1
 -15   1   8 100.192 5.18817  -2
  11   1   8 100.192 5.18817   1
 -16   1   8 28.4654 2.76502  -2
  12   1   8 28.4654 2.76502   1
 -17   1   8 132.041 6.56496  -2
  13   1   8 132.041 6.56496   1
 -18   1   8 38.6238 3.35924  -2
  14   1   8 38.6238 3.35924   1
 -19   1   8 97.4845 5.47414  -2
  15   1   8 97.4845 5.47414   1
 -20   1   8 4.82282 2.85597  -2
  16   1   8 4.82282 2.85597   1
 -21   1   8 -0.3647 3.18798  -2
  17   1   8 -0.3647 3.18798   1
 -22   1   8 -2.6414 3.43120  -2
  18   1   8 -2.6414 3.43120   1
  17   2   8 21.6688 4.22366  -2
 -21   2   8 21.6688 4.22366   1
  16   2   8 4.40803 3.75248  -2
 -20   2   8 4.40803 3.75248   1
  15   2   8 16.3035 3.83972  -2
 -19   2   8 16.3035 3.83972   1
  14   2   8 20.3639 3.35445  -2
 -18   2   8 20.3639 3.35445   1
  13   2   8 109.215 6.42839  -2
 -17   2   8 109.215 6.42839   1
  12   2   8 45.2770 3.34668  -2
 -16   2   8 45.2770 3.34668   1
  11   2   8 23.8481 2.49176  -2
 -15   2   8 23.8481 2.49176   1
  10   2   8 209.606 8.17197  -2
 -14   2   8 209.606 8.17197   1
   9   2   8 27.5342 2.24028  -2
 -13   2   8 27.5342 2.24028   1
   8   2   8 8.15088 1.84356  -2
 -12   2   8 8.15088 1.84356   1
   7   2   8 216.946 8.93414  -2
 -11   2   8 216.946 8.93414   1
   6   2   8 189.541 7.87031  -2
 -10   2   8 189.541 7.87031   1
   5   2   8 36.8139 1.93150  -2
  -9   2   8 36.8139 1.93150   1
   4   2   8 134.609 4.60550  -2
  -8   2   8 134.609 4.60550   1
   3   2   8 108.424 3.81979  -2
  -7   2   8 108.424 3.81979   1
   2   2   8 1550.32 53.1920  -2
  -6   2   8 1550.32 53.1920   1
   1   2   8 168.134 5.98946  -2
  -5   2   8 168.134 5.98946   1
   0   2   8 285.323 9.91677  -2
  -4   2   8 285.323 9.91677   1
  -1   2   8 64.4609 2.52725  -2
  -3   2   8 64.4609 2.52725   1
  -2   2   8 441.538 15.2331  -2
  -2   2   8 441.538 15.2331   1
  -3   2   8 75.2358 2.75621  -2
  -1   2   8 75.2358 2.75621   1
  -4   2   8 154.820 5.54368  -2
   0   2   8 154.820 5.54368   1
  -5   2   8 79.7611 2.92402  -2
   1   2   8 79.7611 2.92402   1
  -6   2   8 752.202 32.2134  -2
   2   2   8 752.202 32.2134   1
  -7   2   8 45.4116 2.00557  -2
   3   2   8 45.4116 2.00557   1
  -8   2   8 123.680 4.12234  -2
   4   2   8 123.680 4.12234   1
  -9   2   8 41.9633 1.82248  -2
   5   2   8 41.9633 1.82248   1
 -10   2   8 92.6993 3.58757  -2
   6   2   8 92.6993 3.58757   1
 -11   2   8 170.570 7.15625  -2
   7   2   8 170.570 7.15625   1
 -12   2   8 6.91445 1.52574  -2
   8   2   8 6.91445 1.52574   1
 -13   2   8 13.6515 2.24540  -2
   9   2   8 13.6515 2.24540   1
 -14   2   8 260.432 11.7678  -2
  10   2   8 260.432 11.7678   1
 -15   2   8 38.0156 3.05148  -2
  11   2   8 38.0156 3.05148   1
 -16   2   8 95.0076 5.14248  -2
  12   2   8 95.0076 5.14248   1
 -17   2   8 50.3333 3.67410  -2
  13   2   8 50.3333 3.67410   1
 -18   2   8 19.4154 2.98060  -2
  14   2   8 19.4154 2.98060   1
 -19   2   8 19.4050 3.01713  -2
  15   2   8 19.4050 3.01713   1
 -20   2   8 9.97075 3.37366  -2
  16   2   8 9.97075 3.37366   1
 -21   2   8 58.0011 4.88591  -2
  17   2   8 58.0011 4.88591   1
  16   3   8 91.3145 6.79100  -2
 -20   3   8 91.3145 6.79100   1
  15   3   8 44.4895 4.08373  -2
 -19   3   8 44.4895 4.08373   1
  14   3   8 34.7452 3.70720  -2
 -18   3   8 34.7452 3.70720   1
  13   3   8 9.57360 2.53519  -2
 -17   3   8 9.57360 2.53519   1
  12   3   8 1.28110 2.17858  -2
 -16   3   8 1.28110 2.17858   1
  11   3   8 7.15494 2.31138  -2
 -15   3   8 7.15494 2.31138   1
  10   3   8 147.403 6.55335  -2
 -14   3   8 147.403 6.55335   1
   9   3   8 192.688 8.18860  -2
 -13   3   8 192.688 8.18860   1
   8   3   8 91.2991 4.39812  -2
 -12   3   8 91.2991 4.39812   1
   7   3   8 211.538 8.79522  -2
 -11   3   8 211.538 8.79522   1
   6   3   8 305.433 12.3925  -2
 -10   3   8 305.433 12.3925   1
   5   3   8 180.685 7.58194  -2
  -9   3   8 180.685 7.58194   1
   4   3   8 7.77662 1.39304  -2
  -8   3   8 7.77662 1.39304   1
   3   3   8 109.852 3.94986  -2
  -7   3   8 109.852 3.94986   1
   2   3   8 47.2740 2.06764  -2
  -6   3   8 47.2740 2.06764   1
   1   3   8 16.0595 1.28872  -2
  -5   3   8 16.0595 1.28872   1
   0   3   8 357.168 11.8342  -2
  -4   3   8 357.168 11.8342   1
  -1   3   8 209.036 6.72963  -2
  -3   3   8 209.036 6.72963   1
  -2   3   8 267.627 8.93747  -2
  -2   3   8 267.627 8.93747   1
  -3   3   8 103.823 3.76176  -2
  -1   3   8 103.823 3.76176   1
  -4   3   8 760.201 24.8518  -2
   0   3   8 760.201 24.8518   1
  -5   3   8 23.1354 1.42617  -2
   1   3   8 23.1354 1.42617   1
  -6   3   8 64.0006 2.45195  -2
   2   3   8 64.0006 2.45195   1
  -7   3   8 46.7217 2.11120  -2
   3   3   8 46.7217 2.11120   1
  -8   3   8 9.93471 1.49724  -2
   4   3   8 9.93471 1.49724   1
  -9   3   8 232.989 8.90114  -2
   5   3   8 232.989 8.90114   1
 -10   3   8 292.337 10.3476  -2
   6   3   8 292.337 10.3476   1
 -11   3   8 100.685 4.03449  -2
   7   3   8 100.685 4.03449   1
 -12   3   8 152.838 6.11282  -2
   8   3   8 152.838 6.11282   1
 -13   3   8 109.812 5.18325  -2
   9   3   8 109.812 5.18325   1
 -14   3   8 199.209 9.28274  -2
  10   3   8 199.209 9.28274   1
 -15   3   8 3.88666 2.48012  -2
  11   3   8 3.88666 2.48012   1
 -16   3   8 10.2417 2.63984  -2
  12   3   8 10.2417 2.63984   1
 -17   3   8 -1.4427 2.97888  -2
  13   3   8 -1.4427 2.97888   1
 -18   3   8 32.8891 3.73515  -2
  14   3   8 32.8891 3.73515   1
 -19   3   8 60.6965 4.79047  -2
  15   3   8 60.6965 4.79047   1
 -20   3   8 58.6868 4.92254  -2
  16   3   8 58.6868 4.92254   1
  15   4   8 14.2844 6.97315  -2
 -19   4   8 14.2844 6.97315   1
  14   4   8 36.2455 3.62779  -2
 -18   4   8 36.2455 3.62779   1
  13   4   8 86.6493 5.62958  -2
 -17   4   8 86.6493 5.62958   1
  12   4   8 15.5652 3.23718  -2
 -16   4   8 15.5652 3.23718   1
  11   4   8 0.37348 2.84951  -2
 -15   4   8 0.37348 2.84951   1
  10   4   8 68.3336 4.67445  -2
 -14   4   8 68.3336 4.67445   1
   9   4   8 38.0462 3.53561  -2
 -13   4   8 38.0462 3.53561   1
   8   4   8 89.4239 4.87255  -2
 -12   4   8 89.4239 4.87255   1
   7   4   8 63.9574 3.90980  -2
 -11   4   8 63.9574 3.90980   1
   6   4   8 11.0316 2.31412  -2
 -10   4   8 11.0316 2.31412   1
   5   4   8 3.23635 2.03635  -2
  -9   4   8 3.23635 2.03635   1
   4   4   8 31.2393 2.34642  -2
  -8   4   8 31.2393 2.34642   1
   3   4   8 106.733 4.85325  -2
  -7   4   8 106.733 4.85325   1
   2   4   8 160.765 6.77322  -2
  -6   4   8 160.765 6.77322   1
   1   4   8 17.1447 1.92233  -2
  -5   4   8 17.1447 1.92233   1
   0   4   8 49.0438 2.79384  -2
  -4   4   8 49.0438 2.79384   1
  -1   4   8 48.8035 2.78508  -2
  -3   4   8 48.8035 2.78508   1
  -2   4   8 280.996 11.3218  -2
  -2   4   8 280.996 11.3218   1
  -3   4   8 37.3052 2.42806  -2
  -1   4   8 37.3052 2.42806   1
  -4   4   8 49.7376 2.79686  -2
   0   4   8 49.7376 2.79686   1
  -5   4   8 14.7655 1.73298  -2
   1   4   8 14.7655 1.73298   1
  -6   4   8 185.304 7.27374  -2
   2   4   8 185.304 7.27374   1
  -7   4   8 108.238 4.53210  -2
   3   4   8 108.238 4.53210   1
  -8   4   8 56.3405 2.86682  -2
   4   4   8 56.3405 2.86682   1
  -9   4   8 3.42051 1.55795  -2
   5   4   8 3.42051 1.55795   1
 -10   4   8 14.6662 1.84264  -2
   6   4   8 14.6662 1.84264   1
 -11   4   8 41.7579 2.48955  -2
   7   4   8 41.7579 2.48955   1
 -12   4   8 102.203 4.60155  -2
   8   4   8 102.203 4.60155   1
 -13   4   8 62.2934 3.39043  -2
   9   4   8 62.2934 3.39043   1
 -14   4   8 33.3427 3.13203  -2
  10   4   8 33.3427 3.13203   1
 -15   4   8 4.31032 2.63364  -2
  11   4   8 4.31032 2.63364   1
 -16   4   8 9.99552 3.25191  -2
  12   4   8 9.99552 3.25191   1
 -17   4   8 58.8362 4.78223  -2
  13   4   8 58.8362 4.78223   1
 -18   4   8 22.0404 3.75772  -2
  14   4   8 22.0404 3.75772   1
  12   5   8 10.5848 3.43184  -2
 -16   5   8 10.5848 3.43184   1
  11   5   8 22.8599 3.44173  -2
 -15   5   8 22.8599 3.44173   1
  10   5   8 4.27720 3.11178  -2
 -14   5   8 4.27720 3.11178   1
   9   5   8 96.1749 5.85449  -2
 -13   5   8 96.1749 5.85449   1
   8   5   8 33.4490 3.57031  -2
 -12   5   8 33.4490 3.57031   1
   7   5   8 -2.6940 2.69405  -2
 -11   5   8 -2.6940 2.69405   1
   6   5   8 12.4950 2.79538  -2
 -10   5   8 12.4950 2.79538   1
   5   5   8 16.5803 2.76168  -2
  -9   5   8 16.5803 2.76168   1
   4   5   8 16.8036 2.79549  -2
  -8   5   8 16.8036 2.79549   1
   3   5   8 9.45225 2.23918  -2
  -7   5   8 9.45225 2.23918   1
   2   5   8 10.6454 2.09663  -2
  -6   5   8 10.6454 2.09663   1
   1   5   8 39.3776 2.74414  -2
  -5   5   8 39.3776 2.74414   1
   0   5   8 54.9006 3.17998  -2
  -4   5   8 54.9006 3.17998   1
  -1   5   8 16.9966 2.16487  -2
  -3   5   8 16.9966 2.16487   1
  -2   5   8 8.68494 2.00022  -2
  -2   5   8 8.68494 2.00022   1
  -3   5   8 27.7424 2.41681  -2
  -1   5   8 27.7424 2.41681   1
  -4   5   8 48.8273 2.79731  -2
   0   5   8 48.8273 2.79731   1
  -5   5   8 25.2562 2.16540  -2
   1   5   8 25.2562 2.16540   1
  -6   5   8 4.60422 2.26593  -2
   2   5   8 4.60422 2.26593   1
  -7   5   8 4.10190 2.57168  -2
   3   5   8 4.10190 2.57168   1
  -8   5   8 13.5023 2.57935  -2
   4   5   8 13.5023 2.57935   1
  -9   5   8 19.3879 2.75920  -2
   5   5   8 19.3879 2.75920   1
 -10   5   8 4.04966 2.52678  -2
   6   5   8 4.04966 2.52678   1
 -11   5   8 3.64244 2.69370  -2
   7   5   8 3.64244 2.69370   1
 -12   5   8 26.5184 3.94100  -2
   8   5   8 26.5184 3.94100   1
 -13   5   8 116.477 6.85862  -2
   9   5   8 116.477 6.85862   1
 -14   5   8 7.44255 3.69776  -2
  10   5   8 7.44255 3.69776   1
 -15   5   8 28.5827 4.30410  -2
  11   5   8 28.5827 4.30410   1
 -16   5   8 23.5384 4.19623  -2
  12   5   8 23.5384 4.19623   1
   9   6   8 40.2615 4.58568  -2
 -13   6   8 40.2615 4.58568   1
   8   6   8 10.7382 3.73701  -2
 -12   6   8 10.7382 3.73701   1
   7   6   8 113.655 7.37759  -2
 -11   6   8 113.655 7.37759   1
   6   6   8 0.21720 3.30019  -2
 -10   6   8 0.21720 3.30019   1
   5   6   8 1.38427 3.30015  -2
  -9   6   8 1.38427 3.30015   1
   4   6   8 81.3417 5.83505  -2
  -8   6   8 81.3417 5.83505   1
   3   6   8 48.6975 4.49155  -2
  -7   6   8 48.6975 4.49155   1
   2   6   8 67.2492 4.61789  -2
  -6   6   8 67.2492 4.61789   1
   1   6   8 3.65764 2.79077  -2
  -5   6   8 3.65764 2.79077   1
   0   6   8 7.26991 2.95593  -2
  -4   6   8 7.26991 2.95593   1
  -1   6   8 102.638 6.00248  -2
  -3   6   8 102.638 6.00248   1
  -2   6   8 97.8204 5.77781  -2
  -2   6   8 97.8204 5.77781   1
  -3   6   8 93.2905 5.56317  -2
  -1   6   8 93.2905 5.56317   1
  -4   6   8 12.3517 3.05665  -2
   0   6   8 12.3517 3.05665   1
  -5   6   8 1.69286 2.87912  -2
   1   6   8 1.69286 2.87912   1
  -6   6   8 74.9630 4.99806  -2
   2   6   8 74.9630 4.99806   1
  -7   6   8 34.4330 3.47075  -2
   3   6   8 34.4330 3.47075   1
  -8   6   8 53.9978 4.10410  -2
   4   6   8 53.9978 4.10410   1
  -9   6   8 -1.5007 2.78080  -2
   5   6   8 -1.5007 2.78080   1
 -10   6   8 6.87408 3.14916  -2
   6   6   8 6.87408 3.14916   1
 -11   6   8 120.796 8.07838  -2
   7   6   8 120.796 8.07838   1
 -12   6   8 13.5912 4.03859  -2
   8   6   8 13.5912 4.03859   1
 -13   6   8 30.8339 4.49049  -2
   9   6   8 30.8339 4.49049   1
   3   7   8 17.7289 4.12202  -2
  -7   7   8 17.7289 4.12202   1
   2   7   8 25.6494 4.12255  -2
  -6   7   8 25.6494 4.12255   1
   1   7   8 33.7209 4.42259  -2
  -5   7   8 33.7209 4.42259   1
   0   7   8 25.4911 3.69687  -2
  -4   7   8 25.4911 3.69687   1
  -1   7   8 6.42938 3.33764  -2
  -3   7   8 6.42938 3.33764   1
  -2   7   8 22.2148 3.67308  -2
  -2   7   8 22.2148 3.67308   1
  -3   7   8 3.74426 3.35665  -2
  -1   7   8 3.74426 3.35665   1
  -4   7   8 39.8574 4.14224  -2
   0   7   8 39.8574 4.14224   1
  -5   7   8 21.3661 3.69304  -2
   1   7   8 21.3661 3.69304   1
  -6   7   8 37.0452 3.83955  -2
   2   7   8 37.0452 3.83955   1
  -7   7   8 28.5710 3.83458  -2
   3   7   8 28.5710 3.83458   1
  17   0   9 2.82003 5.57273  -2
 -22   0   9 2.82003 5.57273   1
  16   0   9 -10.042 5.20353  -2
 -21   0   9 -10.042 5.20353   1
  15   0   9 7.71823 5.29764  -2
 -20   0   9 7.71823 5.29764   1
  14   0   9 3.02543 4.82825  -2
 -19   0   9 3.02543 4.82825   1
  13   0   9 7.51021 4.87187  -2
 -18   0   9 7.51021 4.87187   1
  12   0   9 6.21712 4.50792  -2
 -17   0   9 6.21712 4.50792   1
  11   0   9 4.25003 3.95635  -2
 -16   0   9 4.25003 3.95635   1
  10   0   9 -3.6487 3.45446  -2
 -15   0   9 -3.6487 3.45446   1
   9   0   9 3.92840 3.30855  -2
 -14   0   9 3.92840 3.30855   1
   8   0   9 -1.7096 3.00611  -2
 -13   0   9 -1.7096 3.00611   1
   7   0   9 -1.1099 2.89352  -2
 -12   0   9 -1.1099 2.89352   1
   6   0   9 2.89449 1.50457  -2
 -11   0   9 2.89449 1.50457   1
   5   0   9 -1.1865 1.25860  -2
 -10   0   9 -1.1865 1.25860   1
   4   0   9 3.16202 1.13621  -2
  -9   0   9 3.16202 1.13621   1
   3   0   9 -0.3391 1.27318  -2
  -8   0   9 -0.3391 1.27318   1
   2   0   9 3.92352 1.30074  -2
  -7   0   9 3.92352 1.30074   1
   1   0   9 -1.0379 1.03963  -2
  -6   0   9 -1.0379 1.03963   1
   0   0   9 -0.4156 1.16866  -2
  -5   0   9 -0.4156 1.16866   1
  -1   0   9 -0.6756 1.41310  -2
  -4   0   9 -0.6756 1.41310   1
  -2   0   9 0.47346 2.15235  -2
  -3   0   9 0.47346 2.15235   1
  -3   0   9 -1.0200 2.03424  -2
  -2   0   9 -1.0200 2.03424   1
  -4   0   9 0.13847 1.98926  -2
  -1   0   9 0.13847 1.98926   1
  -5   0   9 -2.0457 1.54277  -2
   0   0   9 -2.0457 1.54277   1
  -6   0   9 -1.5325 1.38596  -2
   1   0   9 -1.5325 1.38596   1
  -7   0   9 6.04039 2.16732  -2
   2   0   9 6.04039 2.16732   1
  -8   0   9 -2.1366 1.61360  -2
   3   0   9 -2.1366 1.61360   1
  -9   0   9 1.85265 1.80672  -2
   4   0   9 1.85265 1.80672   1
 -10   0   9 -2.4372 1.84749  -2
   5   0   9 -2.4372 1.84749   1
 -11   0   9 -2.3524 2.38132  -2
   6   0   9 -2.3524 2.38132   1
 -12   0   9 -2.4418 2.56780  -2
   7   0   9 -2.4418 2.56780   1
 -13   0   9 0.72674 2.84499  -2
   8   0   9 0.72674 2.84499   1
 -14   0   9 4.12090 3.02724  -2
   9   0   9 4.12090 3.02724   1
 -15   0   9 -0.9309 3.14725  -2
  10   0   9 -0.9309 3.14725   1
 -16   0   9 -2.1617 3.37040  -2
  11   0   9 -2.1617 3.37040   1
 -17   0   9 1.58621 3.74626  -2
  12   0   9 1.58621 3.74626   1
 -18   0   9 2.00166 3.99611  -2
  13   0   9 2.00166 3.99611   1
 -19   0   9 0.75465 5.07625  -2
  14   0   9 0.75465 5.07625   1
 -20   0   9 -1.2504 5.18578  -2
  15   0   9 -1.2504 5.18578   1
 -21   0   9 -0.1315 5.57132  -2
  16   0   9 -0.1315 5.57132   1
 -22   0   9 6.94807 6.07826  -2
  17   0   9 6.94807 6.07826   1
  17   1   9 62.3214 6.49023  -2
 -22   1   9 62.3214 6.49023   1
  16   1   9 10.4303 3.98382  -2
 -21   1   9 10.4303 3.98382   1
  15   1   9 86.0546 6.31803  -2
 -20   1   9 86.0546 6.31803   1
  14   1   9 214.242 12.0127  -2
 -19   1   9 214.242 12.0127   1
  13   1   9 64.6626 5.09401  -2
 -18   1   9 64.6626 5.09401   1
  12   1   9 74.2264 6.12777  -2
 -17   1   9 74.2264 6.12777   1
  11   1   9 101.034 6.66838  -2
 -16   1   9 101.034 6.66838   1
  10   1   9 365.899 19.6480  -2
 -15   1   9 365.899 19.6480   1
   9   1   9 165.494 10.5765  -2
 -14   1   9 165.494 10.5765   1
   8   1   9 150.659 7.16527  -2
 -13   1   9 150.659 7.16527   1
   7   1   9 80.6243 3.91821  -2
 -12   1   9 80.6243 3.91821   1
   6   1   9 8.24087 1.79838  -2
 -11   1   9 8.24087 1.79838   1
   5   1   9 219.407 8.38308  -2
 -10   1   9 219.407 8.38308   1
   4   1   9 444.024 17.5810  -2
  -9   1   9 444.024 17.5810   1
   3   1   9 214.889 8.18035  -2
  -8   1   9 214.889 8.18035   1
   2   1   9 357.963 18.9295  -2
  -7   1   9 357.963 18.9295   1
   1   1   9 41.8558 2.47562  -2
  -6   1   9 41.8558 2.47562   1
   0   1   9 554.735 21.7987  -2
  -5   1   9 554.735 21.7987   1
  -1   1   9 184.512 9.93601  -2
  -4   1   9 184.512 9.93601   1
  -2   1   9 294.106 17.9931  -2
  -3   1   9 294.106 17.9931   1
  -3   1   9 751.300 38.9261  -2
  -2   1   9 751.300 38.9261   1
  -4   1   9 660.681 30.5186  -2
  -1   1   9 660.681 30.5186   1
  -5   1   9 277.159 10.3795  -2
   0   1   9 277.159 10.3795   1
  -6   1   9 140.010 5.79533  -2
   1   1   9 140.010 5.79533   1
  -7   1   9 908.901 36.1046  -2
   2   1   9 908.901 36.1046   1
  -8   1   9 262.989 12.6819  -2
   3   1   9 262.989 12.6819   1
  -9   1   9 210.558 11.6434  -2
   4   1   9 210.558 11.6434   1
 -10   1   9 203.699 8.30941  -2
   5   1   9 203.699 8.30941   1
 -11   1   9 5.69022 1.86100  -2
   6   1   9 5.69022 1.86100   1
 -12   1   9 66.2689 3.69811  -2
   7   1   9 66.2689 3.69811   1
 -13   1   9 66.0289 3.81953  -2
   8   1   9 66.0289 3.81953   1
 -14   1   9 541.404 23.2409  -2
   9   1   9 541.404 23.2409   1
 -15   1   9 157.689 8.22262  -2
  10   1   9 157.689 8.22262   1
 -16   1   9 71.7149 4.34425  -2
  11   1   9 71.7149 4.34425   1
 -17   1   9 184.577 8.73362  -2
  12   1   9 184.577 8.73362   1
 -18   1   9 50.3263 4.21927  -2
  13   1   9 50.3263 4.21927   1
 -19   1   9 146.707 8.16271  -2
  14   1   9 146.707 8.16271   1
 -20   1   9 76.0139 6.03978  -2
  15   1   9 76.0139 6.03978   1
 -21   1   9 9.07641 4.10513  -2
  16   1   9 9.07641 4.10513   1
 -22   1   9 25.5657 5.61457  -2
  17   1   9 25.5657 5.61457   1
  16   2   9 11.1543 5.48763  -2
 -21   2   9 11.1543 5.48763   1
  15   2   9 16.7240 5.49100  -2
 -20   2   9 16.7240 5.49100   1
  14   2   9 47.0429 4.91442  -2
 -19   2   9 47.0429 4.91442   1
  13   2   9 76.0047 5.95846  -2
 -18   2   9 76.0047 5.95846   1
  12   2   9 92.4512 5.69506  -2
 -17   2   9 92.4512 5.69506   1
  11   2   9 102.351 5.96846  -2
 -16   2   9 102.351 5.96846   1
  10   2   9 47.6941 3.48018  -2
 -15   2   9 47.6941 3.48018   1
   9   2   9 452.225 17.9868  -2
 -14   2   9 452.225 17.9868   1
   8   2   9 297.809 11.3645  -2
 -13   2   9 297.809 11.3645   1
   7   2   9 67.1531 3.53379  -2
 -12   2   9 67.1531 3.53379   1
   6   2   9 158.469 8.58570  -2
 -11   2   9 158.469 8.58570   1
   5   2   9 164.661 7.56608  -2
 -10   2   9 164.661 7.56608   1
   4   2   9 160.793 7.27399  -2
  -9   2   9 160.793 7.27399   1
   3   2   9 521.547 20.5989  -2
  -8   2   9 521.547 20.5989   1
   2   2   9 80.1883 3.37323  -2
  -7   2   9 80.1883 3.37323   1
   1   2   9 804.333 29.3530  -2
  -6   2   9 804.333 29.3530   1
   0   2   9 274.963 10.1899  -2
  -5   2   9 274.963 10.1899   1
  -1   2   9 689.619 29.1819  -2
  -4   2   9 689.619 29.1819   1
  -2   2   9 88.8818 4.09359  -2
  -3   2   9 88.8818 4.09359   1
  -3   2   9 238.997 10.5714  -2
  -2   2   9 238.997 10.5714   1
  -4   2   9 547.629 19.0583  -2
  -1   2   9 547.629 19.0583   1
  -5   2   9 325.224 11.2521  -2
   0   2   9 325.224 11.2521   1
  -6   2   9 828.848 28.7923  -2
   1   2   9 828.848 28.7923   1
  -7   2   9 155.971 5.36589  -2
   2   2   9 155.971 5.36589   1
  -8   2   9 241.848 9.26602  -2
   3   2   9 241.848 9.26602   1
  -9   2   9 299.040 10.6196  -2
   4   2   9 299.040 10.6196   1
 -10   2   9 87.4204 3.71966  -2
   5   2   9 87.4204 3.71966   1
 -11   2   9 406.498 16.2783  -2
   6   2   9 406.498 16.2783   1
 -12   2   9 83.3816 4.91091  -2
   7   2   9 83.3816 4.91091   1
 -13   2   9 157.202 7.49208  -2
   8   2   9 157.202 7.49208   1
 -14   2   9 192.657 9.78372  -2
   9   2   9 192.657 9.78372   1
 -15   2   9 24.9767 2.90497  -2
  10   2   9 24.9767 2.90497   1
 -16   2   9 75.9632 4.96320  -2
  11   2   9 75.9632 4.96320   1
 -17   2   9 44.7185 4.07318  -2
  12   2   9 44.7185 4.07318   1
 -18   2   9 69.3092 5.02058  -2
  13   2   9 69.3092 5.02058   1
 -19   2   9 30.6063 3.98742  -2
  14   2   9 30.6063 3.98742   1
 -20   2   9 7.80577 4.91936  -2
  15   2   9 7.80577 4.91936   1
 -21   2   9 15.8906 5.28062  -2
  16   2   9 15.8906 5.28062   1
  15   3   9 8.00230 4.10183  -2
 -20   3   9 8.00230 4.10183   1
  14   3   9 14.3112 3.98579  -2
 -19   3   9 14.3112 3.98579   1
  13   3   9 2.25884 4.11055  -2
 -18   3   9 2.25884 4.11055   1
  12   3   9 1.62248 2.91842  -2
 -17   3   9 1.62248 2.91842   1
  11   3   9 7.71953 2.67716  -2
 -16   3   9 7.71953 2.67716   1
  10   3   9 3.69622 2.77657  -2
 -15   3   9 3.69622 2.77657   1
   9   3   9 150.620 6.78652  -2
 -14   3   9 150.620 6.78652   1
   8   3   9 81.0750 4.30688  -2
 -13   3   9 81.0750 4.30688   1
   7   3   9 99.1844 4.79742  -2
 -12   3   9 99.1844 4.79742   1
   6   3   9 72.6814 3.79742  -2
 -11   3   9 72.6814 3.79742   1
   5   3   9 77.7590 3.90943  -2
 -10   3   9 77.7590 3.90943   1
   4   3   9 151.692 6.46007  -2
  -9   3   9 151.692 6.46007   1
   3   3   9 132.315 5.28599  -2
  -8   3   9 132.315 5.28599   1
   2   3   9 237.757 8.43801  -2
  -7   3   9 237.757 8.43801   1
   1   3   9 231.533 8.23915  -2
  -6   3   9 231.533 8.23915   1
   0   3   9 12.4745 1.32623  -2
  -5   3   9 12.4745 1.32623   1
  -1   3   9 159.829 5.50136  -2
  -4   3   9 159.829 5.50136   1
  -2   3   9 17.3396 1.28835  -2
  -3   3   9 17.3396 1.28835   1
  -3   3   9 25.4429 1.52828  -2
  -2   3   9 25.4429 1.52828   1
  -4   3   9 82.6098 3.13846  -2
  -1   3   9 82.6098 3.13846   1
  -5   3   9 29.8207 1.76049  -2
   0   3   9 29.8207 1.76049   1
  -6   3   9 194.121 6.67037  -2
   1   3   9 194.121 6.67037   1
  -7   3   9 548.126 18.0983  -2
   2   3   9 548.126 18.0983   1
  -8   3   9 322.770 11.9917  -2
   3   3   9 322.770 11.9917   1
  -9   3   9 56.7452 2.87536  -2
   4   3   9 56.7452 2.87536   1
 -10   3   9 63.7098 2.96330  -2
   5   3   9 63.7098 2.96330   1
 -11   3   9 45.5941 2.78490  -2
   6   3   9 45.5941 2.78490   1
 -12   3   9 46.5132 2.85115  -2
   7   3   9 46.5132 2.85115   1
 -13   3   9 41.7454 3.26409  -2
   8   3   9 41.7454 3.26409   1
 -14   3   9 71.4191 4.87063  -2
   9   3   9 71.4191 4.87063   1
 -15   3   9 12.1055 3.14562  -2
  10   3   9 12.1055 3.14562   1
 -16   3   9 4.42549 3.17477  -2
  11   3   9 4.42549 3.17477   1
 -17   3   9 11.2603 3.32068  -2
  12   3   9 11.2603 3.32068   1
 -18   3   9 4.47426 4.09360  -2
  13   3   9 4.47426 4.09360   1
 -19   3   9 0.81792 4.12088  -2
  14   3   9 0.81792 4.12088   1
 -20   3   9 7.20826 4.38273  -2
  15   3   9 7.20826 4.38273   1
  14   4   9 24.6628 9.59627  -2
 -19   4   9 24.6628 9.59627   1
  13   4   9 47.5245 5.23802  -2
 -18   4   9 47.5245 5.23802   1
  12   4   9 12.7034 3.64132  -2
 -17   4   9 12.7034 3.64132   1
  11   4   9 47.4079 4.36428  -2
 -16   4   9 47.4079 4.36428   1
  10   4   9 12.5697 3.33836  -2
 -15   4   9 12.5697 3.33836   1
   9   4   9 56.6193 4.46939  -2
 -14   4   9 56.6193 4.46939   1
   8   4   9 21.7697 3.05389  -2
 -13   4   9 21.7697 3.05389   1
   7   4   9 159.461 7.61045  -2
 -12   4   9 159.461 7.61045   1
   6   4   9 84.4771 4.71986  -2
 -11   4   9 84.4771 4.71986   1
   5   4   9 59.3660 3.78114  -2
 -10   4   9 59.3660 3.78114   1
   4   4   9 9.60291 2.37577  -2
  -9   4   9 9.60291 2.37577   1
   3   4   9 71.6809 4.47525  -2
  -8   4   9 71.6809 4.47525   1
   2   4   9 310.633 13.6311  -2
  -7   4   9 310.633 13.6311   1
   1   4   9 143.814 6.70905  -2
  -6   4   9 143.814 6.70905   1
   0   4   9 31.8464 2.50885  -2
  -5   4   9 31.8464 2.50885   1
  -1   4   9 556.836 21.9341  -2
  -4   4   9 556.836 21.9341   1
  -2   4   9 579.953 22.8175  -2
  -3   4   9 579.953 22.8175   1
  -3   4   9 559.857 22.0132  -2
  -2   4   9 559.857 22.0132   1
  -4   4   9 218.874 8.92997  -2
  -1   4   9 218.874 8.92997   1
  -5   4   9 12.7811 1.87958  -2
   0   4   9 12.7811 1.87958   1
  -6   4   9 128.150 5.33300  -2
   1   4   9 128.150 5.33300   1
  -7   4   9 281.686 11.3825  -2
   2   4   9 281.686 11.3825   1
  -8   4   9 183.304 7.74272  -2
   3   4   9 183.304 7.74272   1
  -9   4   9 19.9469 2.26235  -2
   4   4   9 19.9469 2.26235   1
 -10   4   9 63.7510 3.54508  -2
   5   4   9 63.7510 3.54508   1
 -11   4   9 113.985 5.82748  -2
   6   4   9 113.985 5.82748   1
 -12   4   9 111.189 5.40663  -2
   7   4   9 111.189 5.40663   1
 -13   4   9 33.6502 3.30219  -2
   8   4   9 33.6502 3.30219   1
 -14   4   9 28.9242 3.37018  -2
   9   4   9 28.9242 3.37018   1
 -15   4   9 9.04845 3.39081  -2
  10   4   9 9.04845 3.39081   1
 -16   4   9 18.6063 4.31746  -2
  11   4   9 18.6063 4.31746   1
 -17   4   9 1.27895 4.30307  -2
  12   4   9 1.27895 4.30307   1
 -18   4   9 21.7193 4.83589  -2
  13   4   9 21.7193 4.83589   1
  14   4   9 5.05129 2.01792   1
  11   5   9 16.9827 3.88270  -2
 -16   5   9 16.9827 3.88270   1
  10   5   9 51.0781 4.61220  -2
 -15   5   9 51.0781 4.61220   1
   9   5   9 64.2692 4.92275  -2
 -14   5   9 64.2692 4.92275   1
   8   5   9 102.179 6.34957  -2
 -13   5   9 102.179 6.34957   1
   7   5   9 180.171 9.39612  -2
 -12   5   9 180.171 9.39612   1
   6   5   9 24.5732 3.40789  -2
 -11   5   9 24.5732 3.40789   1
   5   5   9 162.709 8.54635  -2
 -10   5   9 162.709 8.54635   1
   4   5   9 23.4526 3.72654  -2
  -9   5   9 23.4526 3.72654   1
   3   5   9 5.55831 3.14652  -2
  -8   5   9 5.55831 3.14652   1
   2   5   9 30.2343 3.25616  -2
  -7   5   9 30.2343 3.25616   1
   1   5   9 13.3152 2.39988  -2
  -6   5   9 13.3152 2.39988   1
   0   5   9 306.595 12.4626  -2
  -5   5   9 306.595 12.4626   1
  -1   5   9 43.4399 3.05126  -2
  -4   5   9 43.4399 3.05126   1
  -2   5   9 34.7714 2.77396  -2
  -3   5   9 34.7714 2.77396   1
  -3   5   9 36.4992 2.80139  -2
  -2   5   9 36.4992 2.80139   1
  -4   5   9 69.9667 3.57671  -2
  -1   5   9 69.9667 3.57671   1
  -5   5   9 232.264 9.08404  -2
   0   5   9 232.264 9.08404   1
  -6   5   9 5.04099 2.04905  -2
   1   5   9 5.04099 2.04905   1
  -7   5   9 81.3652 4.22611  -2
   2   5   9 81.3652 4.22611   1
  -8   5   9 14.9513 2.71159  -2
   3   5   9 14.9513 2.71159   1
  -9   5   9 19.4486 3.18719  -2
   4   5   9 19.4486 3.18719   1
 -10   5   9 300.600 14.6064  -2
   5   5   9 300.600 14.6064   1
 -11   5   9 11.3019 3.91566  -2
   6   5   9 11.3019 3.91566   1
 -12   5   9 69.9097 5.81258  -2
   7   5   9 69.9097 5.81258   1
 -13   5   9 69.0551 5.26577  -2
   8   5   9 69.0551 5.26577   1
 -14   5   9 116.167 7.94048  -2
   9   5   9 116.167 7.94048   1
 -15   5   9 55.2449 5.44351  -2
  10   5   9 55.2449 5.44351   1
 -16   5   9 17.2436 4.58492  -2
  11   5   9 17.2436 4.58492   1
   8   6   9 19.5193 4.48068  -2
 -13   6   9 19.5193 4.48068   1
   7   6   9 34.6928 4.74385  -2
 -12   6   9 34.6928 4.74385   1
   6   6   9 92.8057 6.84712  -2
 -11   6   9 92.8057 6.84712   1
   5   6   9 53.8342 5.17031  -2
 -10   6   9 53.8342 5.17031   1
   4   6   9 3.19496 4.52854  -2
  -9   6   9 3.19496 4.52854   1
   3   6   9 17.2312 4.54685  -2
  -8   6   9 17.2312 4.54685   1
   2   6   9 12.9018 4.48997  -2
  -7   6   9 12.9018 4.48997   1
   1   6   9 3.82998 3.56997  -2
  -6   6   9 3.82998 3.56997   1
   0   6   9 7.64267 3.25151  -2
  -5   6   9 7.64267 3.25151   1
  -1   6   9 21.1737 3.50515  -2
  -4   6   9 21.1737 3.50515   1
  -2   6   9 103.640 6.85621  -2
  -3   6   9 103.640 6.85621   1
  -3   6   9 109.826 6.33121  -2
  -2   6   9 109.826 6.33121   1
  -4   6   9 21.5809 3.39569  -2
  -1   6   9 21.5809 3.39569   1
  -5   6   9 13.6641 3.29805  -2
   0   6   9 13.6641 3.29805   1
  -6   6   9 0.88694 3.13479  -2
   1   6   9 0.88694 3.13479   1
  -7   6   9 11.0739 3.38810  -2
   2   6   9 11.0739 3.38810   1
  -8   6   9 5.43240 3.27193  -2
   3   6   9 5.43240 3.27193   1
  -9   6   9 5.93602 3.37716  -2
   4   6   9 5.93602 3.37716   1
 -10   6   9 21.9534 3.75055  -2
   5   6   9 21.9534 3.75055   1
 -11   6   9 42.2329 5.13612  -2
   6   6   9 42.2329 5.13612   1
 -12   6   9 55.7169 5.78247  -2
   7   6   9 55.7169 5.78247   1
 -13   6   9 25.2033 5.74357  -2
   8   6   9 25.2033 5.74357   1
   1   7   9 4.38244 4.20878  -2
  -6   7   9 4.38244 4.20878   1
   0   7   9 66.3797 6.80184  -2
  -5   7   9 66.3797 6.80184   1
  -1   7   9 -0.6121 4.48710  -2
  -4   7   9 -0.6121 4.48710   1
  -2   7   9 -1.0131 4.10630  -2
  -3   7   9 -1.0131 4.10630   1
  -3   7   9 2.98827 4.11762  -2
  -2   7   9 2.98827 4.11762   1
  -4   7   9 10.5921 4.12308  -2
  -1   7   9 10.5921 4.12308   1
  -5   7   9 33.0348 4.69752  -2
   0   7   9 33.0348 4.69752   1
  -6   7   9 3.91333 3.99241  -2
   1   7   9 3.91333 3.99241   1
   2   7   9 7.43189 3.42397   1
  17   0  10 95.2259 8.26553  -2
 -22   0  10 95.2259 8.26553   1
  16   0  10 -2.5730 4.47052  -2
 -21   0  10 -2.5730 4.47052   1
  15   0  10 68.5935 6.64673  -2
 -20   0  10 68.5935 6.64673   1
  14   0  10 21.6179 4.59845  -2
 -19   0  10 21.6179 4.59845   1
  13   0  10 382.512 23.9469  -2
 -18   0  10 382.512 23.9469   1
  12   0  10 650.183 39.6225  -2
 -17   0  10 650.183 39.6225   1
  11   0  10 12.8281 3.85112  -2
 -16   0  10 12.8281 3.85112   1
  10   0  10 498.178 30.6007  -2
 -15   0  10 498.178 30.6007   1
   9   0  10 74.7730 5.97626  -2
 -14   0  10 74.7730 5.97626   1
   8   0  10 865.681 52.1993  -2
 -13   0  10 865.681 52.1993   1
   7   0  10 39.6351 3.95992  -2
 -12   0  10 39.6351 3.95992   1
   6   0  10 548.466 33.2893  -2
 -11   0  10 548.466 33.2893   1
   5   0  10 45.1087 3.07551  -2
 -10   0  10 45.1087 3.07551   1
   4   0  10 338.203 15.7129  -2
  -9   0  10 338.203 15.7129   1
   3   0  10 1406.83 59.0754  -2
  -8   0  10 1406.83 59.0754   1
   2   0  10 314.945 14.7538  -2
  -7   0  10 314.945 14.7538   1
   1   0  10 179.892 7.80680  -2
  -6   0  10 179.892 7.80680   1
   0   0  10 130.459 6.98395  -2
  -5   0  10 130.459 6.98395   1
  -1   0  10 392.012 20.3468  -2
  -4   0  10 392.012 20.3468   1
  -2   0  10 239.936 14.8360  -2
  -3   0  10 239.936 14.8360   1
  -3   0  10 94.3074 5.67784  -2
  -2   0  10 94.3074 5.67784   1
  -4   0  10 1022.51 52.9199  -2
  -1   0  10 1022.51 52.9199   1
  -5   0  10 385.921 18.3198  -2
   0   0  10 385.921 18.3198   1
  -6   0  10 103.231 4.52282  -2
   1   0  10 103.231 4.52282   1
  -7   0  10 707.909 32.6784  -2
   2   0  10 707.909 32.6784   1
  -8   0  10 547.891 40.4001  -2
   3   0  10 547.891 40.4001   1
  -9   0  10 312.541 16.4578  -2
   4   0  10 312.541 16.4578   1
 -10   0  10 97.3629 6.67102  -2
   5   0  10 97.3629 6.67102   1
 -11   0  10 245.510 15.5081  -2
   6   0  10 245.510 15.5081   1
 -12   0  10 49.3817 4.32386  -2
   7   0  10 49.3817 4.32386   1
 -13   0  10 425.075 32.0100  -2
   8   0  10 425.075 32.0100   1
 -14   0  10 39.7929 4.14597  -2
   9   0  10 39.7929 4.14597   1
 -15   0  10 289.508 18.4074  -2
  10   0  10 289.508 18.4074   1
 -16   0  10 8.21891 3.44630  -2
  11   0  10 8.21891 3.44630   1
 -17   0  10 421.246 26.3728  -2
  12   0  10 421.246 26.3728   1
 -18   0  10 304.098 19.5608  -2
  13   0  10 304.098 19.5608   1
 -19   0  10 9.48649 4.00040  -2
  14   0  10 9.48649 4.00040   1
 -20   0  10 40.0384 5.17466  -2
  15   0  10 40.0384 5.17466   1
 -21   0  10 11.5573 4.34121  -2
  16   0  10 11.5573 4.34121   1
 -22   0  10 104.415 8.42866  -2
  17   0  10 104.415 8.42866   1
 -22   1  10 55.0256 3.89943   1
  16   1  10 66.1430 4.73248  -2
 -21   1  10 66.1430 4.73248   1
  15   1  10 67.3356 4.66095  -2
 -20   1  10 67.3356 4.66095   1
  14   1  10 43.9451 3.82757  -2
 -19   1  10 43.9451 3.82757   1
  13   1  10 11.8765 2.95828  -2
 -18   1  10 11.8765 2.95828   1
  12   1  10 27.4932 3.15426  -2
 -17   1  10 27.4932 3.15426   1
  11   1  10 0.92679 2.74967  -2
 -16   1  10 0.92679 2.74967   1
  10   1  10 231.818 11.5645  -2
 -15   1  10 231.818 11.5645   1
   9   1  10 32.0846 3.21009  -2
 -14   1  10 32.0846 3.21009   1
   8   1  10 105.770 5.91112  -2
 -13   1  10 105.770 5.91112   1
   7   1  10 233.630 9.62352  -2
 -12   1  10 233.630 9.62352   1
   6   1  10 515.352 20.4781  -2
 -11   1  10 515.352 20.4781   1
   5   1  10 19.6833 1.84867  -2
 -10   1  10 19.6833 1.84867   1
   4   1  10 160.829 6.24852  -2
  -9   1  10 160.829 6.24852   1
   3   1  10 51.7455 2.46211  -2
  -8   1  10 51.7455 2.46211   1
   2   1  10 398.497 17.1957  -2
  -7   1  10 398.497 17.1957   1
   1   1  10 29.9513 1.67030  -2
  -6   1  10 29.9513 1.67030   1
   0   1  10 673.166 22.0092  -2
  -5   1  10 673.166 22.0092   1
  -1   1  10 158.826 5.72001  -2
  -4   1  10 158.826 5.72001   1
  -2   1  10 106.432 4.20187  -2
  -3   1  10 106.432 4.20187   1
  -3   1  10 272.076 10.1264  -2
  -2   1  10 272.076 10.1264   1
  -4   1  10 116.040 4.09050  -2
  -1   1  10 116.040 4.09050   1
  -5   1  10 395.660 12.4616  -2
   0   1  10 395.660 12.4616   1
  -6   1  10 40.5770 1.70049  -2
   1   1  10 40.5770 1.70049   1
  -7   1  10 912.182 29.9962  -2
   2   1  10 912.182 29.9962   1
  -8   1  10 48.7592 2.11050  -2
   3   1  10 48.7592 2.11050   1
  -9   1  10 92.9786 3.81846  -2
   4   1  10 92.9786 3.81846   1
 -10   1  10 11.9213 1.25720  -2
   5   1  10 11.9213 1.25720   1
 -11   1  10 423.472 18.4666  -2
   6   1  10 423.472 18.4666   1
 -12   1  10 113.076 5.53059  -2
   7   1  10 113.076 5.53059   1
 -13   1  10 109.355 5.46498  -2
   8   1  10 109.355 5.46498   1
 -14   1  10 48.6037 3.26434  -2
   9   1  10 48.6037 3.26434   1
 -15   1  10 241.447 11.0108  -2
  10   1  10 241.447 11.0108   1
 -16   1  10 1.62496 2.35937  -2
  11   1  10 1.62496 2.35937   1
 -17   1  10 32.3786 3.15257  -2
  12   1  10 32.3786 3.15257   1
 -18   1  10 26.9648 3.10417  -2
  13   1  10 26.9648 3.10417   1
 -19   1  10 79.0700 4.87327  -2
  14   1  10 79.0700 4.87327   1
 -20   1  10 28.0135 3.43655  -2
  15   1  10 28.0135 3.43655   1
 -21   1  10 24.7131 3.45460  -2
  16   1  10 24.7131 3.45460   1
  16   2  10 5.40756 4.05941  -2
 -21   2  10 5.40756 4.05941   1
  15   2  10 3.74928 3.53145  -2
 -20   2  10 3.74928 3.53145   1
  14   2  10 24.9286 3.76375  -2
 -19   2  10 24.9286 3.76375   1
  13   2  10 20.7706 3.55887  -2
 -18   2  10 20.7706 3.55887   1
  12   2  10 39.1819 3.88216  -2
 -17   2  10 39.1819 3.88216   1
  11   2  10 90.2295 5.04881  -2
 -16   2  10 90.2295 5.04881   1
  10   2  10 36.5751 3.17258  -2
 -15   2  10 36.5751 3.17258   1
   9   2  10 155.409 6.85392  -2
 -14   2  10 155.409 6.85392   1
   8   2  10 25.8392 2.28034  -2
 -13   2  10 25.8392 2.28034   1
   7   2  10 93.8327 4.15262  -2
 -12   2  10 93.8327 4.15262   1
   6   2  10 105.260 4.77848  -2
 -11   2  10 105.260 4.77848   1
   5   2  10 149.422 6.36399  -2
 -10   2  10 149.422 6.36399   1
   4   2  10 21.1845 1.65604  -2
  -9   2  10 21.1845 1.65604   1
   3   2  10 6.91282 1.31631  -2
  -8   2  10 6.91282 1.31631   1
   2   2  10 1021.49 37.2604  -2
  -7   2  10 1021.49 37.2604   1
   1   2  10 109.198 4.04539  -2
  -6   2  10 109.198 4.04539   1
   0   2  10 222.900 7.86112  -2
  -5   2  10 222.900 7.86112   1
  -1   2  10 592.846 21.7022  -2
  -4   2  10 592.846 21.7022   1
  -2   2  10 13.6929 1.02086  -2
  -3   2  10 13.6929 1.02086   1
  -3   2  10 29.3485 1.56566  -2
  -2   2  10 29.3485 1.56566   1
  -4   2  10 1370.87 47.5465  -2
  -1   2  10 1370.87 47.5465   1
  -5   2  10 425.155 14.7805  -2
   0   2  10 425.155 14.7805   1
  -6   2  10 70.6290 2.71245  -2
   1   2  10 70.6290 2.71245   1
  -7   2  10 606.085 21.3316  -2
   2   2  10 606.085 21.3316   1
  -8   2  10 16.1664 1.28516  -2
   3   2  10 16.1664 1.28516   1
  -9   2  10 49.3413 2.28998  -2
   4   2  10 49.3413 2.28998   1
 -10   2  10 77.3239 3.48727  -2
   5   2  10 77.3239 3.48727   1
 -11   2  10 56.0756 3.02299  -2
   6   2  10 56.0756 3.02299   1
 -12   2  10 68.3703 3.85070  -2
   7   2  10 68.3703 3.85070   1
 -13   2  10 18.9535 2.48104  -2
   8   2  10 18.9535 2.48104   1
 -14   2  10 129.701 6.45159  -2
   9   2  10 129.701 6.45159   1
 -15   2  10 15.0133 2.54914  -2
  10   2  10 15.0133 2.54914   1
 -16   2  10 95.4397 5.20912  -2
  11   2  10 95.4397 5.20912   1
 -17   2  10 18.7362 2.87125  -2
  12   2  10 18.7362 2.87125   1
 -18   2  10 22.3610 3.11609  -2
  13   2  10 22.3610 3.11609   1
 -19   2  10 14.0413 3.06950  -2
  14   2  10 14.0413 3.06950   1
 -20   2  10 -1.4435 2.97118  -2
  15   2  10 -1.4435 2.97118   1
 -21   2  10 1.17019 3.50022  -2
  16   2  10 1.17019 3.50022   1
  15   3  10 110.335 9.00047  -2
 -20   3  10 110.335 9.00047   1
  14   3  10 17.9903 3.93681  -2
 -19   3  10 17.9903 3.93681   1
  13   3  10 23.0377 3.54118  -2
 -18   3  10 23.0377 3.54118   1
  12   3  10 17.4142 2.82492  -2
 -17   3  10 17.4142 2.82492   1
  11   3  10 22.9757 2.82698  -2
 -16   3  10 22.9757 2.82698   1
  10   3  10 15.9519 2.44041  -2
 -15   3  10 15.9519 2.44041   1
   9   3  10 77.8216 4.17395  -2
 -14   3  10 77.8216 4.17395   1
   8   3  10 47.4735 3.06600  -2
 -13   3  10 47.4735 3.06600   1
   7   3  10 6.24588 2.10251  -2
 -12   3  10 6.24588 2.10251   1
   6   3  10 14.0147 2.08399  -2
 -11   3  10 14.0147 2.08399   1
   5   3  10 125.207 5.53555  -2
 -10   3  10 125.207 5.53555   1
   4   3  10 178.850 7.54891  -2
  -9   3  10 178.850 7.54891   1
   3   3  10 68.0754 3.42392  -2
  -8   3  10 68.0754 3.42392   1
   2   3  10 36.8507 2.00267  -2
  -7   3  10 36.8507 2.00267   1
   1   3  10 169.024 6.14782  -2
  -6   3  10 169.024 6.14782   1
   0   3  10 120.790 4.55745  -2
  -5   3  10 120.790 4.55745   1
  -1   3  10 66.4681 2.78293  -2
  -4   3  10 66.4681 2.78293   1
  -2   3  10 179.289 6.14396  -2
  -3   3  10 179.289 6.14396   1
  -3   3  10 263.674 9.30826  -2
  -2   3  10 263.674 9.30826   1
  -4   3  10 103.461 3.92374  -2
  -1   3  10 103.461 3.92374   1
  -5   3  10 146.311 5.40485  -2
   0   3  10 146.311 5.40485   1
  -6   3  10 78.1115 3.01875  -2
   1   3  10 78.1115 3.01875   1
  -7   3  10 86.9163 3.33208  -2
   2   3  10 86.9163 3.33208   1
  -8   3  10 23.6512 1.88423  -2
   3   3  10 23.6512 1.88423   1
  -9   3  10 165.340 6.51549  -2
   4   3  10 165.340 6.51549   1
 -10   3  10 170.904 6.25881  -2
   5   3  10 170.904 6.25881   1
 -11   3  10 4.94156 1.69773  -2
   6   3  10 4.94156 1.69773   1
 -12   3  10 10.7306 2.18618  -2
   7   3  10 10.7306 2.18618   1
 -13   3  10 111.379 5.26418  -2
   8   3  10 111.379 5.26418   1
 -14   3  10 87.0210 4.84230  -2
   9   3  10 87.0210 4.84230   1
 -15   3  10 40.5954 3.36973  -2
  10   3  10 40.5954 3.36973   1
 -16   3  10 18.2693 2.89067  -2
  11   3  10 18.2693 2.89067   1
 -17   3  10 2.13516 2.76806  -2
  12   3  10 2.13516 2.76806   1
 -18   3  10 29.5307 3.45314  -2
  13   3  10 29.5307 3.45314   1
 -19   3  10 25.2322 3.85109  -2
  14   3  10 25.2322 3.85109   1
 -20   3  10 70.7750 5.41997  -2
  15   3  10 70.7750 5.41997   1
  13   4  10 129.569 7.48241  -2
 -18   4  10 129.569 7.48241   1
  12   4  10 26.4765 4.06577  -2
 -17   4  10 26.4765 4.06577   1
  11   4  10 13.5270 3.35073  -2
 -16   4  10 13.5270 3.35073   1
  10   4  10 39.4298 3.81673  -2
 -15   4  10 39.4298 3.81673   1
   9   4  10 28.0135 3.11991  -2
 -14   4  10 28.0135 3.11991   1
   8   4  10 274.135 12.3073  -2
 -13   4  10 274.135 12.3073   1
   7   4  10 29.2178 3.01677  -2
 -12   4  10 29.2178 3.01677   1
   6   4  10 25.4705 2.84112  -2
 -11   4  10 25.4705 2.84112   1
   5   4  10 -1.4455 2.33076  -2
 -10   4  10 -1.4455 2.33076   1
   4   4  10 14.9493 2.45935  -2
  -9   4  10 14.9493 2.45935   1
   3   4  10 102.465 5.20269  -2
  -8   4  10 102.465 5.20269   1
   2   4  10 157.059 7.27134  -2
  -7   4  10 157.059 7.27134   1
   1   4  10 177.240 7.46132  -2
  -6   4  10 177.240 7.46132   1
   0   4  10 53.6390 3.03623  -2
  -5   4  10 53.6390 3.03623   1
  -1   4  10 194.587 8.05689  -2
  -4   4  10 194.587 8.05689   1
  -2   4  10 439.500 17.4944  -2
  -3   4  10 439.500 17.4944   1
  -3   4  10 201.217 9.01008  -2
  -2   4  10 201.217 9.01008   1
  -4   4  10 127.321 5.57802  -2
  -1   4  10 127.321 5.57802   1
  -5   4  10 89.7867 4.03323  -2
   0   4  10 89.7867 4.03323   1
  -6   4  10 153.282 6.18138  -2
   1   4  10 153.282 6.18138   1
  -7   4  10 236.532 9.14046  -2
   2   4  10 236.532 9.14046   1
  -8   4  10 60.3009 3.37241  -2
   3   4  10 60.3009 3.37241   1
  -9   4  10 20.9386 2.04131  -2
   4   4  10 20.9386 2.04131   1
 -10   4  10 5.56202 1.77801  -2
   5   4  10 5.56202 1.77801   1
 -11   4  10 35.0147 2.68139  -2
   6   4  10 35.0147 2.68139   1
 -12   4  10 17.8254 2.20561  -2
   7   4  10 17.8254 2.20561   1
 -13   4  10 125.456 5.96568  -2
   8   4  10 125.456 5.96568   1
 -14   4  10 14.1664 2.64046  -2
   9   4  10 14.1664 2.64046   1
 -15   4  10 43.0160 3.64667  -2
  10   4  10 43.0160 3.64667   1
 -16   4  10 4.42426 3.30437  -2
  11   4  10 4.42426 3.30437   1
 -17   4  10 14.4698 3.66849  -2
  12   4  10 14.4698 3.66849   1
 -18   4  10 88.7393 6.07765  -2
  13   4  10 88.7393 6.07765   1
  11   5  10 12.6977 3.60522  -2
 -16   5  10 12.6977 3.60522   1
  10   5  10 4.24272 3.38305  -2
 -15   5  10 4.24272 3.38305   1
   9   5  10 5.44143 3.23062  -2
 -14   5  10 5.44143 3.23062   1
   8   5  10 13.6295 3.35283  -2
 -13   5  10 13.6295 3.35283   1
   7   5  10 57.6700 4.43058  -2
 -12   5  10 57.6700 4.43058   1
   6   5  10 59.1592 4.39361  -2
 -11   5  10 59.1592 4.39361   1
   5   5  10 25.5941 3.25100  -2
 -10   5  10 25.5941 3.25100   1
   4   5  10 6.76265 2.75531  -2
  -9   5  10 6.76265 2.75531   1
   3   5  10 26.0591 2.87835  -2
  -8   5  10 26.0591 2.87835   1
   2   5  10 2.78892 2.33059  -2
  -7   5  10 2.78892 2.33059   1
   1   5  10 12.8880 2.45003  -2
  -6   5  10 12.8880 2.45003   1
   0   5  10 8.56800 2.17035  -2
  -5   5  10 8.56800 2.17035   1
  -1   5  10 35.6494 2.74356  -2
  -4   5  10 35.6494 2.74356   1
  -2   5  10 30.1772 2.56829  -2
  -3   5  10 30.1772 2.56829   1
  -3   5  10 43.1238 2.95454  -2
  -2   5  10 43.1238 2.95454   1
  -4   5  10 16.9837 2.12249  -2
  -1   5  10 16.9837 2.12249   1
  -5   5  10 15.8054 2.09761  -2
   0   5  10 15.8054 2.09761   1
  -6   5  10 17.4661 2.14612  -2
   1   5  10 17.4661 2.14612   1
  -7   5  10 -0.0796 2.13563  -2
   2   5  10 -0.0796 2.13563   1
  -8   5  10 21.9005 2.51032  -2
   3   5  10 21.9005 2.51032   1
  -9   5  10 18.0797 2.35935  -2
   4   5  10 18.0797 2.35935   1
 -10   5  10 47.0300 3.40124  -2
   5   5  10 47.0300 3.40124   1
 -11   5  10 78.5624 5.67978  -2
   6   5  10 78.5624 5.67978   1
 -12   5  10 31.3494 4.08965  -2
   7   5  10 31.3494 4.08965   1
 -13   5  10 29.0841 4.39626  -2
   8   5  10 29.0841 4.39626   1
 -14   5  10 2.92878 3.84710  -2
   9   5  10 2.92878 3.84710   1
 -15   5  10 1.12359 3.97226  -2
  10   5  10 1.12359 3.97226   1
 -16   5  10 2.26680 3.99764  -2
  11   5  10 2.26680 3.99764   1
   7   6  10 22.4981 4.28756  -2
 -12   6  10 22.4981 4.28756   1
   6   6  10 44.6976 4.79064  -2
 -11   6  10 44.6976 4.79064   1
   5   6  10 21.3714 3.89071  -2
 -10   6  10 21.3714 3.89071   1
   4   6  10 11.5010 3.62837  -2
  -9   6  10 11.5010 3.62837   1
   3   6  10 35.2417 4.16970  -2
  -8   6  10 35.2417 4.16970   1
   2   6  10 120.803 7.75750  -2
  -7   6  10 120.803 7.75750   1
   1   6  10 16.7302 3.57361  -2
  -6   6  10 16.7302 3.57361   1
   0   6  10 34.2557 4.05634  -2
  -5   6  10 34.2557 4.05634   1
  -1   6  10 60.5650 4.42537  -2
  -4   6  10 60.5650 4.42537   1
  -2   6  10 30.4184 3.53885  -2
  -3   6  10 30.4184 3.53885   1
  -3   6  10 47.6015 4.08993  -2
  -2   6  10 47.6015 4.08993   1
  -4   6  10 131.759 7.27952  -2
  -1   6  10 131.759 7.27952   1
  -5   6  10 23.6280 3.43401  -2
   0   6  10 23.6280 3.43401   1
  -6   6  10 30.3313 3.64823  -2
   1   6  10 30.3313 3.64823   1
  -7   6  10 83.3787 5.43599  -2
   2   6  10 83.3787 5.43599   1
  -8   6  10 22.2431 3.21760  -2
   3   6  10 22.2431 3.21760   1
  -9   6  10 19.6949 3.27865  -2
   4   6  10 19.6949 3.27865   1
 -10   6  10 14.2027 3.66587  -2
   5   6  10 14.2027 3.66587   1
 -11   6  10 23.8820 4.46692  -2
   6   6  10 23.8820 4.46692   1
 -12   6  10 13.1053 4.25140  -2
   7   6  10 13.1053 4.25140   1
  -1   7  10 21.5681 6.13677  -2
  -4   7  10 21.5681 6.13677   1
  -2   7  10 60.8464 6.08180  -2
  -3   7  10 60.8464 6.08180   1
  -3   7  10 107.668 8.28427  -2
  -2   7  10 107.668 8.28427   1
  -4   7  10 18.0417 5.74358  -2
  -1   7  10 18.0417 5.74358   1
  16   0  11 0.95489 4.96229  -2
 -22   0  11 0.95489 4.96229   1
  15   0  11 -4.3272 4.73979  -2
 -21   0  11 -4.3272 4.73979   1
  14   0  11 -0.0318 4.51659  -2
 -20   0  11 -0.0318 4.51659   1
  13   0  11 -1.4788 4.29850  -2
 -19   0  11 -1.4788 4.29850   1
  12   0  11 -1.4679 4.08619  -2
 -18   0  11 -1.4679 4.08619   1
  11   0  11 14.0458 4.20772  -2
 -17   0  11 14.0458 4.20772   1
  10   0  11 2.34061 3.68482  -2
 -16   0  11 2.34061 3.68482   1
   9   0  11 5.10723 3.53914  -2
 -15   0  11 5.10723 3.53914   1
   8   0  11 4.43204 3.30199  -2
 -14   0  11 4.43204 3.30199   1
   7   0  11 3.18205 3.15257  -2
 -13   0  11 3.18205 3.15257   1
   6   0  11 -4.7438 2.66342  -2
 -12   0  11 -4.7438 2.66342   1
   5   0  11 33.4859 3.56897  -2
 -11   0  11 33.4859 3.56897   1
   4   0  11 -0.6591 2.45360  -2
 -10   0  11 -0.6591 2.45360   1
   3   0  11 2.23749 1.01842  -2
  -9   0  11 2.23749 1.01842   1
   2   0  11 4.27908 1.44958  -2
  -8   0  11 4.27908 1.44958   1
   1   0  11 -1.5948 1.37912  -2
  -7   0  11 -1.5948 1.37912   1
   0   0  11 0.66735 1.28312  -2
  -6   0  11 0.66735 1.28312   1
  -1   0  11 -0.8308 1.20871  -2
  -5   0  11 -0.8308 1.20871   1
  -2   0  11 -0.6137 1.17365  -2
  -4   0  11 -0.6137 1.17365   1
  -3   0  11 0.56114 1.17228  -2
  -3   0  11 0.56114 1.17228   1
  -4   0  11 -0.5012 1.21366  -2
  -2   0  11 -0.5012 1.21366   1
  -5   0  11 -0.0345 1.23656  -2
  -1   0  11 -0.0345 1.23656   1
  -6   0  11 9.32694 1.32077  -2
   0   0  11 9.32694 1.32077   1
  -7   0  11 -1.0060 1.18969  -2
   1   0  11 -1.0060 1.18969   1
  -8   0  11 -0.4210 1.30733  -2
   2   0  11 -0.4210 1.30733   1
  -9   0  11 5.23700 1.86244  -2
   3   0  11 5.23700 1.86244   1
 -10   0  11 -0.4527 2.28261  -2
   4   0  11 -0.4527 2.28261   1
 -11   0  11 13.7127 2.63076  -2
   5   0  11 13.7127 2.63076   1
 -12   0  11 -3.2590 2.53889  -2
   6   0  11 -3.2590 2.53889   1
 -13   0  11 3.39032 2.83607  -2
   7   0  11 3.39032 2.83607   1
 -14   0  11 0.46789 2.94237  -2
   8   0  11 0.46789 2.94237   1
 -15   0  11 -0.5373 3.15101  -2
   9   0  11 -0.5373 3.15101   1
 -16   0  11 7.48540 3.43086  -2
  10   0  11 7.48540 3.43086   1
 -17   0  11 1.95325 3.55450  -2
  11   0  11 1.95325 3.55450   1
 -18   0  11 -2.3879 4.91888  -2
  12   0  11 -2.3879 4.91888   1
 -19   0  11 8.06610 4.35599  -2
  13   0  11 8.06610 4.35599   1
 -20   0  11 0.38983 4.19970  -2
  14   0  11 0.38983 4.19970   1
 -21   0  11 -2.3568 4.38399  -2
  15   0  11 -2.3568 4.38399   1
 -22   0  11 1.66344 4.59901  -2
  16   0  11 1.66344 4.59901   1
  15   1  11 109.088 6.31440  -2
 -21   1  11 109.088 6.31440   1
  14   1  11 110.843 6.17548  -2
 -20   1  11 110.843 6.17548   1
  13   1  11 23.4599 3.41512  -2
 -19   1  11 23.4599 3.41512   1
  12   1  11 50.4727 3.99995  -2
 -18   1  11 50.4727 3.99995   1
  11   1  11 47.7671 3.69952  -2
 -17   1  11 47.7671 3.69952   1
  10   1  11 38.5885 3.32764  -2
 -16   1  11 38.5885 3.32764   1
   9   1  11 22.1499 3.14134  -2
 -15   1  11 22.1499 3.14134   1
   8   1  11 97.2162 6.08710  -2
 -14   1  11 97.2162 6.08710   1
   7   1  11 16.4016 2.68886  -2
 -13   1  11 16.4016 2.68886   1
   6   1  11 52.5544 3.55619  -2
 -12   1  11 52.5544 3.55619   1
   5   1  11 168.873 7.09948  -2
 -11   1  11 168.873 7.09948   1
   4   1  11 159.646 7.90494  -2
 -10   1  11 159.646 7.90494   1
   3   1  11 365.126 13.6012  -2
  -9   1  11 365.126 13.6012   1
   2   1  11 148.321 5.42510  -2
  -8   1  11 148.321 5.42510   1
   1   1  11 117.166 4.39730  -2
  -7   1  11 117.166 4.39730   1
   0   1  11 270.284 9.47565  -2
  -6   1  11 270.284 9.47565   1
  -1   1  11 44.6564 2.36972  -2
  -5   1  11 44.6564 2.36972   1
  -2   1  11 934.907 34.1581  -2
  -4   1  11 934.907 34.1581   1
  -3   1  11 97.3773 4.24218  -2
  -3   1  11 97.3773 4.24218   1
  -4   1  11 2025.64 65.9843  -2
  -2   1  11 2025.64 65.9843   1
  -5   1  11 189.711 5.82343  -2
  -1   1  11 189.711 5.82343   1
  -6   1  11 103.307 3.40811  -2
   0   1  11 103.307 3.40811   1
  -7   1  11 123.732 4.12419  -2
   1   1  11 123.732 4.12419   1
  -8   1  11 64.6897 2.41397  -2
   2   1  11 64.6897 2.41397   1
  -9   1  11 240.030 9.10538  -2
   3   1  11 240.030 9.10538   1
 -10   1  11 396.421 14.7096  -2
   4   1  11 396.421 14.7096   1
 -11   1  11 90.1507 4.60753  -2
   5   1  11 90.1507 4.60753   1
 -12   1  11 141.907 6.64940  -2
   6   1  11 141.907 6.64940   1
 -13   1  11 27.7851 2.54893  -2
   7   1  11 27.7851 2.54893   1
 -14   1  11 266.965 12.9433  -2
   8   1  11 266.965 12.9433   1
 -15   1  11 32.4350 2.90274  -2
   9   1  11 32.4350 2.90274   1
 -16   1  11 73.2470 4.36377  -2
  10   1  11 73.2470 4.36377   1
 -17   1  11 47.8369 3.64856  -2
  11   1  11 47.8369 3.64856   1
 -18   1  11 28.9372 3.26658  -2
  12   1  11 28.9372 3.26658   1
 -19   1  11 20.1332 3.18345  -2
  13   1  11 20.1332 3.18345   1
 -20   1  11 101.770 5.87252  -2
  14   1  11 101.770 5.87252   1
 -21   1  11 49.0001 4.22568  -2
  15   1  11 49.0001 4.22568   1
  16   1  11 10.1501 2.17665   1
  15   2  11 10.0692 4.34449  -2
 -21   2  11 10.0692 4.34449   1
  14   2  11 27.3136 4.17038  -2
 -20   2  11 27.3136 4.17038   1
  13   2  11 16.1655 3.67146  -2
 -19   2  11 16.1655 3.67146   1
  12   2  11 86.5398 5.84027  -2
 -18   2  11 86.5398 5.84027   1
  11   2  11 131.405 7.42420  -2
 -17   2  11 131.405 7.42420   1
  10   2  11 3.07085 2.61115  -2
 -16   2  11 3.07085 2.61115   1
   9   2  11 34.0927 3.11728  -2
 -15   2  11 34.0927 3.11728   1
   8   2  11 13.8983 2.59141  -2
 -14   2  11 13.8983 2.59141   1
   7   2  11 537.733 21.4634  -2
 -13   2  11 537.733 21.4634   1
   6   2  11 234.538 9.06048  -2
 -12   2  11 234.538 9.06048   1
   5   2  11 63.1433 3.10517  -2
 -11   2  11 63.1433 3.10517   1
   4   2  11 311.803 12.6261  -2
 -10   2  11 311.803 12.6261   1
   3   2  11 52.4474 2.56314  -2
  -9   2  11 52.4474 2.56314   1
   2   2  11 93.8549 3.87920  -2
  -8   2  11 93.8549 3.87920   1
   1   2  11 465.312 18.4515  -2
  -7   2  11 465.312 18.4515   1
   0   2  11 31.7295 1.78803  -2
  -6   2  11 31.7295 1.78803   1
  -1   2  11 141.629 5.77773  -2
  -5   2  11 141.629 5.77773   1
  -2   2  11 77.8859 3.25403  -2
  -4   2  11 77.8859 3.25403   1
  -3   2  11 19.0333 1.77559  -2
  -3   2  11 19.0333 1.77559   1
  -4   2  11 137.644 5.48487  -2
  -2   2  11 137.644 5.48487   1
  -5   2  11 281.105 9.29526  -2
  -1   2  11 281.105 9.29526   1
  -6   2  11 52.2512 2.16802  -2
   0   2  11 52.2512 2.16802   1
  -7   2  11 199.990 7.82698  -2
   1   2  11 199.990 7.82698   1
  -8   2  11 82.8579 2.97790  -2
   2   2  11 82.8579 2.97790   1
  -9   2  11 41.6941 2.13942  -2
   3   2  11 41.6941 2.13942   1
 -10   2  11 133.971 5.48079  -2
   4   2  11 133.971 5.48079   1
 -11   2  11 54.6605 3.40457  -2
   5   2  11 54.6605 3.40457   1
 -12   2  11 111.583 6.18743  -2
   6   2  11 111.583 6.18743   1
 -13   2  11 291.048 13.0991  -2
   7   2  11 291.048 13.0991   1
 -14   2  11 4.77528 2.41751  -2
   8   2  11 4.77528 2.41751   1
 -15   2  11 76.8624 4.45840  -2
   9   2  11 76.8624 4.45840   1
 -16   2  11 5.45247 2.65936  -2
  10   2  11 5.45247 2.65936   1
 -17   2  11 72.7694 4.58679  -2
  11   2  11 72.7694 4.58679   1
 -18   2  11 34.4592 3.48390  -2
  12   2  11 34.4592 3.48390   1
 -19   2  11 11.7273 3.12828  -2
  13   2  11 11.7273 3.12828   1
 -20   2  11 16.3483 3.43627  -2
  14   2  11 16.3483 3.43627   1
 -21   2  11 12.1691 3.42474  -2
  15   2  11 12.1691 3.42474   1
  14   3  11 2.25963 3.99973  -2
 -20   3  11 2.25963 3.99973   1
  13   3  11 -2.1294 3.73033  -2
 -19   3  11 -2.1294 3.73033   1
  12   3  11 5.87868 3.39126  -2
 -18   3  11 5.87868 3.39126   1
  11   3  11 9.06076 3.05199  -2
 -17   3  11 9.06076 3.05199   1
  10   3  11 30.5723 3.02720  -2
 -16   3  11 30.5723 3.02720   1
   9   3  11 25.7830 2.62862  -2
 -15   3  11 25.7830 2.62862   1
   8   3  11 68.2856 3.88773  -2
 -14   3  11 68.2856 3.88773   1
   7   3  11 21.1136 2.50936  -2
 -13   3  11 21.1136 2.50936   1
   6   3  11 94.6754 4.61433  -2
 -12   3  11 94.6754 4.61433   1
   5   3  11 8.23908 2.05768  -2
 -11   3  11 8.23908 2.05768   1
   4   3  11 8.62507 1.99062  -2
 -10   3  11 8.62507 1.99062   1
   3   3  11 14.2546 2.00670  -2
  -9   3  11 14.2546 2.00670   1
   2   3  11 11.9445 1.90793  -2
  -8   3  11 11.9445 1.90793   1
   1   3  11 10.5076 1.53896  -2
  -7   3  11 10.5076 1.53896   1
   0   3  11 65.5476 2.79565  -2
  -6   3  11 65.5476 2.79565   1
  -1   3  11 30.6223 1.78605  -2
  -5   3  11 30.6223 1.78605   1
  -2   3  11 41.3342 1.96005  -2
  -4   3  11 41.3342 1.96005   1
  -3   3  11 48.2722 2.14573  -2
  -3   3  11 48.2722 2.14573   1
  -4   3  11 31.9287 1.81569  -2
  -2   3  11 31.9287 1.81569   1
  -5   3  11 24.9579 1.69825  -2
  -1   3  11 24.9579 1.69825   1
  -6   3  11 31.0525 1.79549  -2
   0   3  11 31.0525 1.79549   1
  -7   3  11 7.22587 1.38551  -2
   1   3  11 7.22587 1.38551   1
  -8   3  11 11.1553 1.60066  -2
   2   3  11 11.1553 1.60066   1
  -9   3  11 12.4827 1.75667  -2
   3   3  11 12.4827 1.75667   1
 -10   3  11 17.7619 2.03597  -2
   4   3  11 17.7619 2.03597   1
 -11   3  11 20.0559 2.08848  -2
   5   3  11 20.0559 2.08848   1
 -12   3  11 35.9839 2.83288  -2
   6   3  11 35.9839 2.83288   1
 -13   3  11 13.3425 2.41919  -2
   7   3  11 13.3425 2.41919   1
 -14   3  11 31.1482 3.16810  -2
   8   3  11 31.1482 3.16810   1
 -15   3  11 18.2025 2.90438  -2
   9   3  11 18.2025 2.90438   1
 -16   3  11 37.5876 3.47125  -2
  10   3  11 37.5876 3.47125   1
 -17   3  11 4.43933 2.92017  -2
  11   3  11 4.43933 2.92017   1
 -18   3  11 12.7203 3.14808  -2
  12   3  11 12.7203 3.14808   1
 -19   3  11 -2.4049 3.18621  -2
  13   3  11 -2.4049 3.18621   1
 -20   3  11 4.01384 4.34276  -2
  14   3  11 4.01384 4.34276   1
  12   4  11 45.0129 4.45327  -2
 -18   4  11 45.0129 4.45327   1
  11   4  11 62.7749 5.46148  -2
 -17   4  11 62.7749 5.46148   1
  10   4  11 22.7807 3.65617  -2
 -16   4  11 22.7807 3.65617   1
   9   4  11 12.4002 3.03868  -2
 -15   4  11 12.4002 3.03868   1
   8   4  11 23.4529 3.13227  -2
 -14   4  11 23.4529 3.13227   1
   7   4  11 77.8747 4.60269  -2
 -13   4  11 77.8747 4.60269   1
   6   4  11 38.4306 3.33411  -2
 -12   4  11 38.4306 3.33411   1
   5   4  11 21.9865 2.89371  -2
 -11   4  11 21.9865 2.89371   1
   4   4  11 31.0113 2.97773  -2
 -10   4  11 31.0113 2.97773   1
   3   4  11 123.976 5.93824  -2
  -9   4  11 123.976 5.93824   1
   2   4  11 99.2946 5.12245  -2
  -8   4  11 99.2946 5.12245   1
   1   4  11 430.899 18.5883  -2
  -7   4  11 430.899 18.5883   1
   0   4  11 241.937 10.0063  -2
  -6   4  11 241.937 10.0063   1
  -1   4  11 35.2985 2.61796  -2
  -5   4  11 35.2985 2.61796   1
  -2   4  11 107.979 4.86873  -2
  -4   4  11 107.979 4.86873   1
  -3   4  11 488.465 19.2971  -2
  -3   4  11 488.465 19.2971   1
  -4   4  11 81.7759 3.97415  -2
  -2   4  11 81.7759 3.97415   1
  -5   4  11 33.6533 2.51304  -2
  -1   4  11 33.6533 2.51304   1
  -6   4  11 88.8998 3.98900  -2
   0   4  11 88.8998 3.98900   1
  -7   4  11 176.867 7.02003  -2
   1   4  11 176.867 7.02003   1
  -8   4  11 108.296 5.02277  -2
   2   4  11 108.296 5.02277   1
  -9   4  11 297.998 12.0404  -2
   3   4  11 297.998 12.0404   1
 -10   4  11 48.3711 3.12027  -2
   4   4  11 48.3711 3.12027   1
 -11   4  11 16.8534 2.41450  -2
   5   4  11 16.8534 2.41450   1
 -12   4  11 23.6971 2.69789  -2
   6   4  11 23.6971 2.69789   1
 -13   4  11 57.5519 3.71053  -2
   7   4  11 57.5519 3.71053   1
 -14   4  11 13.9068 2.73160  -2
   8   4  11 13.9068 2.73160   1
 -15   4  11 7.36553 2.67484  -2
   9   4  11 7.36553 2.67484   1
 -16   4  11 23.2829 3.87910  -2
  10   4  11 23.2829 3.87910   1
 -17   4  11 63.1937 5.20904  -2
  11   4  11 63.1937 5.20904   1
 -18   4  11 35.7284 4.47117  -2
  12   4  11 35.7284 4.47117   1
  10   5  11 12.6363 3.77296  -2
 -16   5  11 12.6363 3.77296   1
   9   5  11 24.3183 3.88795  -2
 -15   5  11 24.3183 3.88795   1
   8   5  11 49.7595 4.40206  -2
 -14   5  11 49.7595 4.40206   1
   7   5  11 3.00655 3.23445  -2
 -13   5  11 3.00655 3.23445   1
   6   5  11 37.0358 3.90112  -2
 -12   5  11 37.0358 3.90112   1
   5   5  11 19.9658 3.36537  -2
 -11   5  11 19.9658 3.36537   1
   4   5  11 84.0799 5.28271  -2
 -10   5  11 84.0799 5.28271   1
   3   5  11 49.1960 3.64763  -2
  -9   5  11 49.1960 3.64763   1
   2   5  11 10.9950 2.59185  -2
  -8   5  11 10.9950 2.59185   1
   1   5  11 15.3511 2.65797  -2
  -7   5  11 15.3511 2.65797   1
   0   5  11 46.2732 3.42606  -2
  -6   5  11 46.2732 3.42606   1
  -1   5  11 73.7920 3.98475  -2
  -5   5  11 73.7920 3.98475   1
  -2   5  11 94.9858 4.62879  -2
  -4   5  11 94.9858 4.62879   1
  -3   5  11 20.1468 2.45625  -2
  -3   5  11 20.1468 2.45625   1
  -4   5  11 233.968 9.69697  -2
  -2   5  11 233.968 9.69697   1
  -5   5  11 49.4436 2.98180  -2
  -1   5  11 49.4436 2.98180   1
  -6   5  11 66.8444 3.47380  -2
   0   5  11 66.8444 3.47380   1
  -7   5  11 11.2902 2.40317  -2
   1   5  11 11.2902 2.40317   1
  -8   5  11 12.8228 2.43524  -2
   2   5  11 12.8228 2.43524   1
  -9   5  11 134.133 6.18548  -2
   3   5  11 134.133 6.18548   1
 -10   5  11 147.380 7.27823  -2
   4   5  11 147.380 7.27823   1
 -11   5  11 58.3412 4.51325  -2
   5   5  11 58.3412 4.51325   1
 -12   5  11 41.9453 4.35567  -2
   6   5  11 41.9453 4.35567   1
 -13   5  11 12.6638 4.03013  -2
   7   5  11 12.6638 4.03013   1
 -14   5  11 64.4889 5.79762  -2
   8   5  11 64.4889 5.79762   1
 -15   5  11 9.67869 4.22743  -2
   9   5  11 9.67869 4.22743   1
 -16   5  11 6.28694 4.23062  -2
  10   5  11 6.28694 4.23062   1
   6   6  11 13.6206 4.28670  -2
 -12   6  11 13.6206 4.28670   1
   5   6  11 92.7693 6.82677  -2
 -11   6  11 92.7693 6.82677   1
   4   6  11 38.1482 4.74391  -2
 -10   6  11 38.1482 4.74391   1
   3   6  11 0.67762 3.71635  -2
  -9   6  11 0.67762 3.71635   1
   2   6  11 21.0662 3.90003  -2
  -8   6  11 21.0662 3.90003   1
   1   6  11 6.43707 3.57978  -2
  -7   6  11 6.43707 3.57978   1
   0   6  11 9.43769 3.59588  -2
  -6   6  11 9.43769 3.59588   1
  -1   6  11 8.86784 3.58275  -2
  -5   6  11 8.86784 3.58275   1
  -2   6  11 16.2120 3.60132  -2
  -4   6  11 16.2120 3.60132   1
  -3   6  11 11.3624 3.25423  -2
  -3   6  11 11.3624 3.25423   1
  -4   6  11 21.6969 3.44554  -2
  -2   6  11 21.6969 3.44554   1
  -5   6  11 7.11786 3.08815  -2
  -1   6  11 7.11786 3.08815   1
  -6   6  11 16.4211 3.32693  -2
   0   6  11 16.4211 3.32693   1
  -7   6  11 11.3941 3.37917  -2
   1   6  11 11.3941 3.37917   1
  -8   6  11 16.8384 3.37700  -2
   2   6  11 16.8384 3.37700   1
  -9   6  11 1.71493 3.26806  -2
   3   6  11 1.71493 3.26806   1
 -10   6  11 22.5265 4.38915  -2
   4   6  11 22.5265 4.38915   1
 -11   6  11 38.8196 5.07981  -2
   5   6  11 38.8196 5.07981   1
 -12   6  11 8.05587 3.80670  -2
   6   6  11 8.05587 3.80670   1
  15   0  12 185.855 13.2053  -2
 -21   0  12 185.855 13.2053   1
  14   0  12 149.804 11.0109  -2
 -20   0  12 149.804 11.0109   1
  13   0  12 299.241 19.2037  -2
 -19   0  12 299.241 19.2037   1
  12   0  12 529.896 32.6323  -2
 -18   0  12 529.896 32.6323   1
  11   0  12 9.39970 4.15481  -2
 -17   0  12 9.39970 4.15481   1
  10   0  12 231.027 14.7403  -2
 -16   0  12 231.027 14.7403   1
   9   0  12 65.2500 5.74039  -2
 -15   0  12 65.2500 5.74039   1
   8   0  12 183.877 12.1332  -2
 -14   0  12 183.877 12.1332   1
   7   0  12 524.725 32.0919  -2
 -13   0  12 524.725 32.0919   1
   6   0  12 116.759 8.03013  -2
 -12   0  12 116.759 8.03013   1
   5   0  12 27.4924 3.37234  -2
 -11   0  12 27.4924 3.37234   1
   4   0  12 498.642 30.2568  -2
 -10   0  12 498.642 30.2568   1
   3   0  12 459.404 23.9844  -2
  -9   0  12 459.404 23.9844   1
   2   0  12 1555.80 71.5379  -2
  -8   0  12 1555.80 71.5379   1
   1   0  12 63.0910 3.49007  -2
  -7   0  12 63.0910 3.49007   1
   0   0  12 307.727 14.4508  -2
  -6   0  12 307.727 14.4508   1
  -1   0  12 257.392 13.6927  -2
  -5   0  12 257.392 13.6927   1
  -2   0  12 282.209 14.7331  -2
  -4   0  12 282.209 14.7331   1
  -3   0  12 147.082 9.41889  -2
  -3   0  12 147.082 9.41889   1
  -4   0  12 456.196 23.7533  -2
  -2   0  12 456.196 23.7533   1
  -5   0  12 95.9489 4.71930  -2
  -1   0  12 95.9489 4.71930   1
  -6   0  12 207.348 8.98177  -2
   0   0  12 207.348 8.98177   1
  -7   0  12 143.467 6.53053  -2
   1   0  12 143.467 6.53053   1
  -8   0  12 472.047 34.5464  -2
   2   0  12 472.047 34.5464   1
  -9   0  12 224.389 11.9717  -2
   3   0  12 224.389 11.9717   1
 -10   0  12 323.616 20.2098  -2
   4   0  12 323.616 20.2098   1
 -11   0  12 71.8676 5.53613  -2
   5   0  12 71.8676 5.53613   1
 -12   0  12 82.8175 6.12536  -2
   6   0  12 82.8175 6.12536   1
 -13   0  12 205.932 13.3408  -2
   7   0  12 205.932 13.3408   1
 -14   0  12 121.875 10.2822  -2
   8   0  12 121.875 10.2822   1
 -15   0  12 36.5783 4.24383  -2
   9   0  12 36.5783 4.24383   1
 -16   0  12 321.105 20.2672  -2
  10   0  12 321.105 20.2672   1
 -17   0  12 8.63507 3.63988  -2
  11   0  12 8.63507 3.63988   1
 -18   0  12 402.172 25.4222  -2
  12   0  12 402.172 25.4222   1
 -19   0  12 309.785 19.9734  -2
  13   0  12 309.785 19.9734   1
 -20   0  12 83.1929 7.30128  -2
  14   0  12 83.1929 7.30128   1
 -21   0  12 73.0923 6.95273  -2
  15   0  12 73.0923 6.95273   1
  15   1  12 12.9731 3.57896  -2
 -21   1  12 12.9731 3.57896   1
  14   1  12 40.4896 4.06373  -2
 -20   1  12 40.4896 4.06373   1
  13   1  12 40.1316 3.86671  -2
 -19   1  12 40.1316 3.86671   1
  12   1  12 42.5145 3.84539  -2
 -18   1  12 42.5145 3.84539   1
  11   1  12 10.0813 2.97278  -2
 -17   1  12 10.0813 2.97278   1
  10   1  12 132.933 6.75751  -2
 -16   1  12 132.933 6.75751   1
   9   1  12 118.194 6.01930  -2
 -15   1  12 118.194 6.01930   1
   8   1  12 138.219 6.75014  -2
 -14   1  12 138.219 6.75014   1
   7   1  12 98.7088 5.66950  -2
 -13   1  12 98.7088 5.66950   1
   6   1  12 50.1044 3.63820  -2
 -12   1  12 50.1044 3.63820   1
   5   1  12 73.3521 3.99081  -2
 -11   1  12 73.3521 3.99081   1
   4   1  12 41.0122 2.55079  -2
 -10   1  12 41.0122 2.55079   1
   3   1  12 46.8400 2.43764  -2
  -9   1  12 46.8400 2.43764   1
   2   1  12 103.977 4.64743  -2
  -8   1  12 103.977 4.64743   1
   1   1  12 83.3679 3.37052  -2
  -7   1  12 83.3679 3.37052   1
   0   1  12 117.006 4.44216  -2
  -6   1  12 117.006 4.44216   1
  -1   1  12 39.9116 1.65220  -2
  -5   1  12 39.9116 1.65220   1
  -2   1  12 39.0198 1.69670  -2
  -4   1  12 39.0198 1.69670   1
  -3   1  12 716.038 23.4473  -2
  -3   1  12 716.038 23.4473   1
  -4   1  12 149.301 4.89108  -2
  -2   1  12 149.301 4.89108   1
  -5   1  12 53.8486 1.88041  -2
  -1   1  12 53.8486 1.88041   1
  -6   1  12 278.007 8.16818  -2
   0   1  12 278.007 8.16818   1
  -7   1  12 101.042 3.28716  -2
   1   1  12 101.042 3.28716   1
  -8   1  12 269.688 8.59756  -2
   2   1  12 269.688 8.59756   1
  -9   1  12 29.8229 1.65195  -2
   3   1  12 29.8229 1.65195   1
 -10   1  12 93.9651 4.70176  -2
   4   1  12 93.9651 4.70176   1
 -11   1  12 87.3505 4.52154  -2
   5   1  12 87.3505 4.52154   1
 -12   1  12 152.147 7.13471  -2
   6   1  12 152.147 7.13471   1
 -13   1  12 88.5849 4.73665  -2
   7   1  12 88.5849 4.73665   1
 -14   1  12 124.058 6.15015  -2
   8   1  12 124.058 6.15015   1
 -15   1  12 81.6377 4.61369  -2
   9   1  12 81.6377 4.61369   1
 -16   1  12 58.0607 3.83992  -2
  10   1  12 58.0607 3.83992   1
 -17   1  12 12.8358 2.74471  -2
  11   1  12 12.8358 2.74471   1
 -18   1  12 46.6935 3.72537  -2
  12   1  12 46.6935 3.72537   1
 -19   1  12 88.2457 5.23794  -2
  13   1  12 88.2457 5.23794   1
 -20   1  12 76.3906 4.93309  -2
  14   1  12 76.3906 4.93309   1
 -21   1  12 11.8976 3.34787  -2
  15   1  12 11.8976 3.34787   1
 -21   2  12 12.7336 2.08960   1
  14   2  12 43.4622 4.61318  -2
 -20   2  12 43.4622 4.61318   1
  13   2  12 14.8482 3.75618  -2
 -19   2  12 14.8482 3.75618   1
  12   2  12 56.6407 4.80117  -2
 -18   2  12 56.6407 4.80117   1
  11   2  12 3.65272 3.32592  -2
 -17   2  12 3.65272 3.32592   1
  10   2  12 30.4181 3.23794  -2
 -16   2  12 30.4181 3.23794   1
   9   2  12 5.75832 2.63831  -2
 -15   2  12 5.75832 2.63831   1
   8   2  12 82.1732 4.63892  -2
 -14   2  12 82.1732 4.63892   1
   7   2  12 24.8881 2.77364  -2
 -13   2  12 24.8881 2.77364   1
   6   2  12 61.3309 3.46785  -2
 -12   2  12 61.3309 3.46785   1
   5   2  12 6.17727 1.80968  -2
 -11   2  12 6.17727 1.80968   1
   4   2  12 95.8256 4.45881  -2
 -10   2  12 95.8256 4.45881   1
   3   2  12 342.908 13.8228  -2
  -9   2  12 342.908 13.8228   1
   2   2  12 260.598 9.83978  -2
  -8   2  12 260.598 9.83978   1
   1   2  12 142.798 5.54358  -2
  -7   2  12 142.798 5.54358   1
   0   2  12 167.633 7.50633  -2
  -6   2  12 167.633 7.50633   1
  -1   2  12 58.4194 2.46442  -2
  -5   2  12 58.4194 2.46442   1
  -2   2  12 85.1534 3.60793  -2
  -4   2  12 85.1534 3.60793   1
  -3   2  12 151.171 6.35824  -2
  -3   2  12 151.171 6.35824   1
  -4   2  12 236.092 8.47276  -2
  -2   2  12 236.092 8.47276   1
  -5   2  12 77.1241 2.89094  -2
  -1   2  12 77.1241 2.89094   1
  -6   2  12 425.642 14.2005  -2
   0   2  12 425.642 14.2005   1
  -7   2  12 232.194 7.56006  -2
   1   2  12 232.194 7.56006   1
  -8   2  12 175.375 6.12657  -2
   2   2  12 175.375 6.12657   1
  -9   2  12 210.511 7.61603  -2
   3   2  12 210.511 7.61603   1
 -10   2  12 36.3898 2.26538  -2
   4   2  12 36.3898 2.26538   1
 -11   2  12 13.1977 2.20797  -2
   5   2  12 13.1977 2.20797   1
 -12   2  12 27.4501 2.69036  -2
   6   2  12 27.4501 2.69036   1
 -13   2  12 34.1899 2.97170  -2
   7   2  12 34.1899 2.97170   1
 -14   2  12 39.8054 3.20710  -2
   8   2  12 39.8054 3.20710   1
 -15   2  12 7.33937 2.56137  -2
   9   2  12 7.33937 2.56137   1
 -16   2  12 47.7876 3.63553  -2
  10   2  12 47.7876 3.63553   1
 -17   2  12 9.05670 2.85969  -2
  11   2  12 9.05670 2.85969   1
 -18   2  12 38.0903 3.61652  -2
  12   2  12 38.0903 3.61652   1
 -19   2  12 11.4247 3.08742  -2
  13   2  12 11.4247 3.08742   1
 -20   2  12 18.7723 3.42963  -2
  14   2  12 18.7723 3.42963   1
 -20   3  12 9.66056 4.63306   1
  13   3  12 60.7834 4.96826  -2
 -19   3  12 60.7834 4.96826   1
  12   3  12 18.3638 3.70702  -2
 -18   3  12 18.3638 3.70702   1
  11   3  12 22.5845 3.63889  -2
 -17   3  12 22.5845 3.63889   1
  10   3  12 79.6077 5.28630  -2
 -16   3  12 79.6077 5.28630   1
   9   3  12 72.2805 4.07514  -2
 -15   3  12 72.2805 4.07514   1
   8   3  12 37.2744 3.01011  -2
 -14   3  12 37.2744 3.01011   1
   7   3  12 220.431 9.33806  -2
 -13   3  12 220.431 9.33806   1
   6   3  12 30.6297 2.66029  -2
 -12   3  12 30.6297 2.66029   1
   5   3  12 27.0490 2.46147  -2
 -11   3  12 27.0490 2.46147   1
   4   3  12 53.4164 3.08644  -2
 -10   3  12 53.4164 3.08644   1
   3   3  12 86.3240 4.13620  -2
  -9   3  12 86.3240 4.13620   1
   2   3  12 368.996 14.8389  -2
  -8   3  12 368.996 14.8389   1
   1   3  12 124.337 4.95864  -2
  -7   3  12 124.337 4.95864   1
   0   3  12 100.514 3.97297  -2
  -6   3  12 100.514 3.97297   1
  -1   3  12 732.290 25.2481  -2
  -5   3  12 732.290 25.2481   1
  -2   3  12 109.046 3.89460  -2
  -4   3  12 109.046 3.89460   1
  -3   3  12 560.374 18.4527  -2
  -3   3  12 560.374 18.4527   1
  -4   3  12 36.5509 2.48210  -2
  -2   3  12 36.5509 2.48210   1
  -5   3  12 694.420 24.0906  -2
  -1   3  12 694.420 24.0906   1
  -6   3  12 79.1250 3.13614  -2
   0   3  12 79.1250 3.13614   1
  -7   3  12 237.124 8.18005  -2
   1   3  12 237.124 8.18005   1
  -8   3  12 448.226 15.8721  -2
   2   3  12 448.226 15.8721   1
  -9   3  12 113.585 4.55256  -2
   3   3  12 113.585 4.55256   1
 -10   3  12 129.516 5.44003  -2
   4   3  12 129.516 5.44003   1
 -11   3  12 42.3179 2.95392  -2
   5   3  12 42.3179 2.95392   1
 -12   3  12 16.7766 2.39693  -2
   6   3  12 16.7766 2.39693   1
 -13   3  12 84.9867 4.46702  -2
   7   3  12 84.9867 4.46702   1
 -14   3  12 26.7206 3.06373  -2
   8   3  12 26.7206 3.06373   1
 -15   3  12 46.9338 3.69606  -2
   9   3  12 46.9338 3.69606   1
 -16   3  12 48.7651 3.90658  -2
  10   3  12 48.7651 3.90658   1
 -17   3  12 64.3435 4.37529  -2
  11   3  12 64.3435 4.37529   1
 -18   3  12 4.47747 3.05289  -2
  12   3  12 4.47747 3.05289   1
 -19   3  12 51.2705 4.25165  -2
  13   3  12 51.2705 4.25165   1
  12   4  12 67.1041 8.20724  -2
 -18   4  12 67.1041 8.20724   1
  11   4  12 21.5076 3.72841  -2
 -17   4  12 21.5076 3.72841   1
  10   4  12 53.7278 4.97602  -2
 -16   4  12 53.7278 4.97602   1
   9   4  12 -1.0631 2.89847  -2
 -15   4  12 -1.0631 2.89847   1
   8   4  12 33.4354 3.41313  -2
 -14   4  12 33.4354 3.41313   1
   7   4  12 56.9161 3.95497  -2
 -13   4  12 56.9161 3.95497   1
   6   4  12 115.928 6.02032  -2
 -12   4  12 115.928 6.02032   1
   5   4  12 20.1515 2.83839  -2
 -11   4  12 20.1515 2.83839   1
   4   4  12 6.55464 2.51264  -2
 -10   4  12 6.55464 2.51264   1
   3   4  12 103.702 5.43362  -2
  -9   4  12 103.702 5.43362   1
   2   4  12 61.7149 3.84099  -2
  -8   4  12 61.7149 3.84099   1
   1   4  12 13.4652 2.43002  -2
  -7   4  12 13.4652 2.43002   1
   0   4  12 3.45884 2.21569  -2
  -6   4  12 3.45884 2.21569   1
  -1   4  12 24.2948 2.38186  -2
  -5   4  12 24.2948 2.38186   1
  -2   4  12 28.5025 2.44592  -2
  -4   4  12 28.5025 2.44592   1
  -3   4  12 154.413 6.62838  -2
  -3   4  12 154.413 6.62838   1
  -4   4  12 30.8393 2.51099  -2
  -2   4  12 30.8393 2.51099   1
  -5   4  12 8.25917 2.02093  -2
  -1   4  12 8.25917 2.02093   1
  -6   4  12 10.4649 1.93901  -2
   0   4  12 10.4649 1.93901   1
  -7   4  12 5.39486 1.93346  -2
   1   4  12 5.39486 1.93346   1
  -8   4  12 32.7088 2.63573  -2
   2   4  12 32.7088 2.63573   1
  -9   4  12 79.2013 4.04119  -2
   3   4  12 79.2013 4.04119   1
 -10   4  12 12.2420 2.57313  -2
   4   4  12 12.2420 2.57313   1
 -11   4  12 20.7449 2.46515  -2
   5   4  12 20.7449 2.46515   1
 -12   4  12 54.3054 3.54858  -2
   6   4  12 54.3054 3.54858   1
 -13   4  12 76.9298 4.36171  -2
   7   4  12 76.9298 4.36171   1
 -14   4  12 30.8345 3.06637  -2
   8   4  12 30.8345 3.06637   1
 -15   4  12 2.41809 2.66538  -2
   9   4  12 2.41809 2.66538   1
 -16   4  12 87.2281 5.34235  -2
  10   4  12 87.2281 5.34235   1
 -17   4  12 22.4364 4.02244  -2
  11   4  12 22.4364 4.02244   1
   9   5  12 4.95291 3.46944  -2
 -15   5  12 4.95291 3.46944   1
   8   5  12 -1.7144 3.29168  -2
 -14   5  12 -1.7144 3.29168   1
   7   5  12 6.10143 3.36925  -2
 -13   5  12 6.10143 3.36925   1
   6   5  12 35.6665 3.81717  -2
 -12   5  12 35.6665 3.81717   1
   5   5  12 42.3685 3.95846  -2
 -11   5  12 42.3685 3.95846   1
   4   5  12 2.62395 2.81422  -2
 -10   5  12 2.62395 2.81422   1
   3   5  12 21.4249 3.01992  -2
  -9   5  12 21.4249 3.01992   1
   2   5  12 9.23126 2.71527  -2
  -8   5  12 9.23126 2.71527   1
   1   5  12 31.1654 3.05042  -2
  -7   5  12 31.1654 3.05042   1
   0   5  12 -0.5107 2.46860  -2
  -6   5  12 -0.5107 2.46860   1
  -1   5  12 3.21473 2.45638  -2
  -5   5  12 3.21473 2.45638   1
  -2   5  12 9.82456 2.35239  -2
  -4   5  12 9.82456 2.35239   1
  -3   5  12 38.6099 2.97261  -2
  -3   5  12 38.6099 2.97261   1
  -4   5  12 28.3164 2.65053  -2
  -2   5  12 28.3164 2.65053   1
  -5   5  12 7.96957 2.17188  -2
  -1   5  12 7.96957 2.17188   1
  -6   5  12 3.51476 2.13468  -2
   0   5  12 3.51476 2.13468   1
  -7   5  12 18.8394 2.34968  -2
   1   5  12 18.8394 2.34968   1
  -8   5  12 16.9445 2.58484  -2
   2   5  12 16.9445 2.58484   1
  -9   5  12 34.7096 2.99476  -2
   3   5  12 34.7096 2.99476   1
 -10   5  12 6.59429 2.69045  -2
   4   5  12 6.59429 2.69045   1
 -11   5  12 43.8943 3.52301  -2
   5   5  12 43.8943 3.52301   1
 -12   5  12 12.8421 3.99417  -2
   6   5  12 12.8421 3.99417   1
 -13   5  12 15.0608 3.60686  -2
   7   5  12 15.0608 3.60686   1
 -14   5  12 8.79566 4.13037  -2
   8   5  12 8.79566 4.13037   1
 -15   5  12 -0.1879 4.12357  -2
   9   5  12 -0.1879 4.12357   1
   5   6  12 9.09488 4.06965  -2
 -11   6  12 9.09488 4.06965   1
   4   6  12 1.77551 3.95824  -2
 -10   6  12 1.77551 3.95824   1
   3   6  12 109.309 7.41390  -2
  -9   6  12 109.309 7.41390   1
   2   6  12 30.7720 4.21521  -2
  -8   6  12 30.7720 4.21521   1
   1   6  12 9.41110 3.67685  -2
  -7   6  12 9.41110 3.67685   1
   0   6  12 33.2974 4.10000  -2
  -6   6  12 33.2974 4.10000   1
  -1   6  12 35.5058 4.17894  -2
  -5   6  12 35.5058 4.17894   1
  -2   6  12 21.1693 3.81800  -2
  -4   6  12 21.1693 3.81800   1
  -3   6  12 3.68601 3.38429  -2
  -3   6  12 3.68601 3.38429   1
  -4   6  12 7.05156 3.21140  -2
  -2   6  12 7.05156 3.21140   1
  -5   6  12 43.5686 4.02327  -2
  -1   6  12 43.5686 4.02327   1
  -6   6  12 27.8250 3.62030  -2
   0   6  12 27.8250 3.62030   1
  -7   6  12 12.2347 3.35181  -2
   1   6  12 12.2347 3.35181   1
  -8   6  12 16.4031 3.49262  -2
   2   6  12 16.4031 3.49262   1
  -9   6  12 52.9626 4.88194  -2
   3   6  12 52.9626 4.88194   1
 -10   6  12 -0.5423 3.66390  -2
   4   6  12 -0.5423 3.66390   1
 -11   6  12 4.72821 3.87122  -2
   5   6  12 4.72821 3.87122   1
  14   0  13 4.41381 4.81207  -2
 -21   0  13 4.41381 4.81207   1
  13   0  13 3.50500 4.73506  -2
 -20   0  13 3.50500 4.73506   1
  12   0  13 4.19748 4.27853  -2
 -19   0  13 4.19748 4.27853   1
  11   0  13 3.27319 4.01459  -2
 -18   0  13 3.27319 4.01459   1
  10   0  13 -1.7425 3.84397  -2
 -17   0  13 -1.7425 3.84397   1
   9   0  13 4.10092 3.68586  -2
 -16   0  13 4.10092 3.68586   1
   8   0  13 -3.2596 3.40282  -2
 -15   0  13 -3.2596 3.40282   1
   7   0  13 -3.8568 3.17183  -2
 -14   0  13 -3.8568 3.17183   1
   6   0  13 75.2676 5.77571  -2
 -13   0  13 75.2676 5.77571   1
   5   0  13 3.18781 3.22971  -2
 -12   0  13 3.18781 3.22971   1
   4   0  13 -1.0276 2.64911  -2
 -11   0  13 -1.0276 2.64911   1
   3   0  13 48.2268 4.14689  -2
 -10   0  13 48.2268 4.14689   1
   2   0  13 -3.3137 2.30996  -2
  -9   0  13 -3.3137 2.30996   1
   1   0  13 1.72046 1.52177  -2
  -8   0  13 1.72046 1.52177   1
   0   0  13 3.68373 1.50686  -2
  -7   0  13 3.68373 1.50686   1
  -1   0  13 -0.7472 1.35581  -2
  -6   0  13 -0.7472 1.35581   1
  -2   0  13 -1.9793 1.31934  -2
  -5   0  13 -1.9793 1.31934   1
  -3   0  13 -2.5582 1.30659  -2
  -4   0  13 -2.5582 1.30659   1
  -4   0  13 2.24577 1.36377  -2
  -3   0  13 2.24577 1.36377   1
  -5   0  13 -1.7219 1.35217  -2
  -2   0  13 -1.7219 1.35217   1
  -6   0  13 -0.6059 1.29767  -2
  -1   0  13 -0.6059 1.29767   1
  -7   0  13 17.7167 1.62194  -2
   0   0  13 17.7167 1.62194   1
  -8   0  13 0.20822 1.32521  -2
   1   0  13 0.20822 1.32521   1
  -9   0  13 -1.7476 1.41995  -2
   2   0  13 -1.7476 1.41995   1
 -10   0  13 56.8705 4.52479  -2
   3   0  13 56.8705 4.52479   1
 -11   0  13 1.04345 2.39039  -2
   4   0  13 1.04345 2.39039   1
 -12   0  13 0.61572 2.58701  -2
   5   0  13 0.61572 2.58701   1
 -13   0  13 28.1606 3.59363  -2
   6   0  13 28.1606 3.59363   1
 -14   0  13 2.21486 2.91552  -2
   7   0  13 2.21486 2.91552   1
 -15   0  13 1.46657 3.14329  -2
   8   0  13 1.46657 3.14329   1
 -16   0  13 2.01164 3.19777  -2
   9   0  13 2.01164 3.19777   1
 -17   0  13 1.09878 3.49434  -2
  10   0  13 1.09878 3.49434   1
 -18   0  13 2.50948 3.69149  -2
  11   0  13 2.50948 3.69149   1
 -19   0  13 6.55149 4.05579  -2
  12   0  13 6.55149 4.05579   1
 -20   0  13 1.37689 4.21335  -2
  13   0  13 1.37689 4.21335   1
 -21   0  13 7.63682 4.48267  -2
  14   0  13 7.63682 4.48267   1
  14   1  13 5.59924 3.36189  -2
 -21   1  13 5.59924 3.36189   1
  13   1  13 3.00591 3.16484  -2
 -20   1  13 3.00591 3.16484   1
  12   1  13 29.9000 3.51022  -2
 -19   1  13 29.9000 3.51022   1
  11   1  13 8.33226 2.95092  -2
 -18   1  13 8.33226 2.95092   1
  10   1  13 79.8364 4.76658  -2
 -17   1  13 79.8364 4.76658   1
   9   1  13 52.7196 3.68921  -2
 -16   1  13 52.7196 3.68921   1
   8   1  13 5.81463 2.50040  -2
 -15   1  13 5.81463 2.50040   1
   7   1  13 32.0337 2.79989  -2
 -14   1  13 32.0337 2.79989   1
   6   1  13 33.6845 2.76138  -2
 -13   1  13 33.6845 2.76138   1
   5   1  13 545.480 23.4500  -2
 -12   1  13 545.480 23.4500   1
   4   1  13 12.0723 2.05894  -2
 -11   1  13 12.0723 2.05894   1
   3   1  13 2.10237 1.45560  -2
 -10   1  13 2.10237 1.45560   1
   2   1  13 93.5244 4.15291  -2
  -9   1  13 93.5244 4.15291   1
   1   1  13 106.468 4.03579  -2
  -8   1  13 106.468 4.03579   1
   0   1  13 177.757 7.96401  -2
  -7   1  13 177.757 7.96401   1
  -1   1  13 147.486 5.33589  -2
  -6   1  13 147.486 5.33589   1
  -2   1  13 186.043 5.75472  -2
  -5   1  13 186.043 5.75472   1
  -3   1  13 80.0638 2.63635  -2
  -4   1  13 80.0638 2.63635   1
  -4   1  13 168.630 5.47377  -2
  -3   1  13 168.630 5.47377   1
  -5   1  13 100.585 3.23895  -2
  -2   1  13 100.585 3.23895   1
  -6   1  13 360.103 10.8356  -2
  -1   1  13 360.103 10.8356   1
  -7   1  13 413.173 12.5276  -2
   0   1  13 413.173 12.5276   1
  -8   1  13 36.5006 1.62584  -2
   1   1  13 36.5006 1.62584   1
  -9   1  13 259.136 9.10895  -2
   2   1  13 259.136 9.10895   1
 -10   1  13 3.02017 1.69693  -2
   3   1  13 3.02017 1.69693   1
 -11   1  13 7.33491 1.85984  -2
   4   1  13 7.33491 1.85984   1
 -12   1  13 538.104 23.2087  -2
   5   1  13 538.104 23.2087   1
 -13   1  13 92.1990 4.72980  -2
   6   1  13 92.1990 4.72980   1
 -14   1  13 91.5220 4.78329  -2
   7   1  13 91.5220 4.78329   1
 -15   1  13 17.3806 2.56275  -2
   8   1  13 17.3806 2.56275   1
 -16   1  13 48.3899 3.47188  -2
   9   1  13 48.3899 3.47188   1
 -17   1  13 35.1290 3.21978  -2
  10   1  13 35.1290 3.21978   1
 -18   1  13 7.08791 2.71985  -2
  11   1  13 7.08791 2.71985   1
 -19   1  13 16.0543 3.03947  -2
  12   1  13 16.0543 3.03947   1
 -20   1  13 3.68074 3.00129  -2
  13   1  13 3.68074 3.00129   1
 -21   1  13 0.85540 3.12114  -2
  14   1  13 0.85540 3.12114   1
  13   2  13 32.7087 3.76047  -2
 -20   2  13 32.7087 3.76047   1
  12   2  13 113.450 6.92929  -2
 -19   2  13 113.450 6.92929   1
  11   2  13 54.5697 4.54710  -2
 -18   2  13 54.5697 4.54710   1
  10   2  13 63.7384 4.58980  -2
 -17   2  13 63.7384 4.58980   1
   9   2  13 18.8680 2.92381  -2
 -16   2  13 18.8680 2.92381   1
   8   2  13 35.5807 3.13521  -2
 -15   2  13 35.5807 3.13521   1
   7   2  13 11.5205 2.49254  -2
 -14   2  13 11.5205 2.49254   1
   6   2  13 19.1162 2.58407  -2
 -13   2  13 19.1162 2.58407   1
   5   2  13 341.347 13.8763  -2
 -12   2  13 341.347 13.8763   1
   4   2  13 45.9779 2.87769  -2
 -11   2  13 45.9779 2.87769   1
   3   2  13 16.4512 1.81848  -2
 -10   2  13 16.4512 1.81848   1
   2   2  13 296.260 11.1024  -2
  -9   2  13 296.260 11.1024   1
   1   2  13 43.7166 2.27100  -2
  -8   2  13 43.7166 2.27100   1
   0   2  13 10.0723 1.29425  -2
  -7   2  13 10.0723 1.29425   1
  -1   2  13 64.4446 2.68549  -2
  -6   2  13 64.4446 2.68549   1
  -2   2  13 58.3712 2.51918  -2
  -5   2  13 58.3712 2.51918   1
  -3   2  13 33.5709 1.78288  -2
  -4   2  13 33.5709 1.78288   1
  -4   2  13 24.3330 1.84281  -2
  -3   2  13 24.3330 1.84281   1
  -5   2  13 134.339 4.50794  -2
  -2   2  13 134.339 4.50794   1
  -6   2  13 144.570 4.84022  -2
  -1   2  13 144.570 4.84022   1
  -7   2  13 20.1502 1.35009  -2
   0   2  13 20.1502 1.35009   1
  -8   2  13 57.7507 2.44369  -2
   1   2  13 57.7507 2.44369   1
  -9   2  13 125.545 5.61447  -2
   2   2  13 125.545 5.61447   1
 -10   2  13 8.24867 1.64241  -2
   3   2  13 8.24867 1.64241   1
 -11   2  13 24.8998 2.45698  -2
   4   2  13 24.8998 2.45698   1
 -12   2  13 164.415 7.81414  -2
   5   2  13 164.415 7.81414   1
 -13   2  13 20.6918 2.54738  -2
   6   2  13 20.6918 2.54738   1
 -14   2  13 3.12566 2.34522  -2
   7   2  13 3.12566 2.34522   1
 -15   2  13 37.8350 3.16991  -2
   8   2  13 37.8350 3.16991   1
 -16   2  13 35.4663 3.17245  -2
   9   2  13 35.4663 3.17245   1
 -17   2  13 124.214 6.36064  -2
  10   2  13 124.214 6.36064   1
 -18   2  13 27.2644 3.35122  -2
  11   2  13 27.2644 3.35122   1
 -19   2  13 55.4349 4.23330  -2
  12   2  13 55.4349 4.23330   1
 -20   2  13 11.4793 3.18755  -2
  13   2  13 11.4793 3.18755   1
  12   3  13 15.7661 3.69155  -2
 -19   3  13 15.7661 3.69155   1
  11   3  13 0.78855 3.18600  -2
 -18   3  13 0.78855 3.18600   1
  10   3  13 4.81569 3.16068  -2
 -17   3  13 4.81569 3.16068   1
   9   3  13 16.8590 3.25461  -2
 -16   3  13 16.8590 3.25461   1
   8   3  13 8.85553 2.55806  -2
 -15   3  13 8.85553 2.55806   1
   7   3  13 64.0683 3.71234  -2
 -14   3  13 64.0683 3.71234   1
   6   3  13 70.3067 3.85501  -2
 -13   3  13 70.3067 3.85501   1
   5   3  13 136.140 6.12822  -2
 -12   3  13 136.140 6.12822   1
   4   3  13 248.585 10.3181  -2
 -11   3  13 248.585 10.3181   1
   3   3  13 32.6123 2.49042  -2
 -10   3  13 32.6123 2.49042   1
   2   3  13 381.104 15.3642  -2
  -9   3  13 381.104 15.3642   1
   1   3  13 90.2495 4.22755  -2
  -8   3  13 90.2495 4.22755   1
   0   3  13 24.9657 1.85207  -2
  -7   3  13 24.9657 1.85207   1
  -1   3  13 21.9733 1.75798  -2
  -6   3  13 21.9733 1.75798   1
  -2   3  13 187.892 6.81595  -2
  -5   3  13 187.892 6.81595   1
  -3   3  13 353.168 11.8007  -2
  -4   3  13 353.168 11.8007   1
  -4   3  13 168.174 5.81979  -2
  -3   3  13 168.174 5.81979   1
  -5   3  13 74.5489 3.09228  -2
  -2   3  13 74.5489 3.09228   1
  -6   3  13 50.6470 2.45605  -2
  -1   3  13 50.6470 2.45605   1
  -7   3  13 30.3274 1.82728  -2
   0   3  13 30.3274 1.82728   1
  -8   3  13 60.1061 2.81022  -2
   1   3  13 60.1061 2.81022   1
  -9   3  13 286.522 10.2944  -2
   2   3  13 286.522 10.2944   1
 -10   3  13 20.2535 2.10748  -2
   3   3  13 20.2535 2.10748   1
 -11   3  13 94.6025 4.73201  -2
   4   3  13 94.6025 4.73201   1
 -12   3  13 78.9498 4.21601  -2
   5   3  13 78.9498 4.21601   1
 -13   3  13 49.5777 3.26505  -2
   6   3  13 49.5777 3.26505   1
 -14   3  13 26.9843 3.00233  -2
   7   3  13 26.9843 3.00233   1
 -15   3  13 0.88351 2.64706  -2
   8   3  13 0.88351 2.64706   1
 -16   3  13 2.69998 2.87223  -2
   9   3  13 2.69998 2.87223   1
 -17   3  13 1.46918 2.88795  -2
  10   3  13 1.46918 2.88795   1
 -18   3  13 3.10730 2.99524  -2
  11   3  13 3.10730 2.99524   1
 -19   3  13 6.71958 3.12992  -2
  12   3  13 6.71958 3.12992   1
  10   4  13 22.0355 3.57745  -2
 -17   4  13 22.0355 3.57745   1
   9   4  13 15.5419 3.36318  -2
 -16   4  13 15.5419 3.36318   1
   8   4  13 11.5450 3.11815  -2
 -15   4  13 11.5450 3.11815   1
   7   4  13 29.0401 3.19494  -2
 -14   4  13 29.0401 3.19494   1
   6   4  13 134.176 6.73659  -2
 -13   4  13 134.176 6.73659   1
   5   4  13 14.6699 2.71253  -2
 -12   4  13 14.6699 2.71253   1
   4   4  13 24.0840 2.82267  -2
 -11   4  13 24.0840 2.82267   1
   3   4  13 58.4820 3.70706  -2
 -10   4  13 58.4820 3.70706   1
   2   4  13 110.825 5.58742  -2
  -9   4  13 110.825 5.58742   1
   1   4  13 226.117 10.1150  -2
  -8   4  13 226.117 10.1150   1
   0   4  13 180.501 8.34916  -2
  -7   4  13 180.501 8.34916   1
  -1   4  13 103.795 5.24716  -2
  -6   4  13 103.795 5.24716   1
  -2   4  13 12.6587 2.24764  -2
  -5   4  13 12.6587 2.24764   1
  -3   4  13 34.3763 2.53349  -2
  -4   4  13 34.3763 2.53349   1
  -4   4  13 62.1584 3.36017  -2
  -3   4  13 62.1584 3.36017   1
  -5   4  13 3.09968 1.92199  -2
  -2   4  13 3.09968 1.92199   1
  -6   4  13 42.2321 2.59126  -2
  -1   4  13 42.2321 2.59126   1
  -7   4  13 65.6424 3.28500  -2
   0   4  13 65.6424 3.28500   1
  -8   4  13 283.793 10.8786  -2
   1   4  13 283.793 10.8786   1
  -9   4  13 116.132 5.34189  -2
   2   4  13 116.132 5.34189   1
 -10   4  13 129.954 6.38829  -2
   3   4  13 129.954 6.38829   1
 -11   4  13 70.4131 4.26364  -2
   4   4  13 70.4131 4.26364   1
 -12   4  13 12.0212 2.67198  -2
   5   4  13 12.0212 2.67198   1
 -13   4  13 92.4506 4.84137  -2
   6   4  13 92.4506 4.84137   1
 -14   4  13 10.4990 2.63351  -2
   7   4  13 10.4990 2.63351   1
 -15   4  13 14.3325 2.78848  -2
   8   4  13 14.3325 2.78848   1
 -16   4  13 23.7242 3.40399  -2
   9   4  13 23.7242 3.40399   1
 -17   4  13 26.5336 3.58439  -2
  10   4  13 26.5336 3.58439   1
  11   4  13 8.33925 2.95358   1
   8   5  13 4.33812 3.40584  -2
 -15   5  13 4.33812 3.40584   1
   7   5  13 27.2784 3.76546  -2
 -14   5  13 27.2784 3.76546   1
   6   5  13 12.5871 3.43370  -2
 -13   5  13 12.5871 3.43370   1
   5   5  13 32.7915 3.64137  -2
 -12   5  13 32.7915 3.64137   1
   4   5  13 65.1659 4.36132  -2
 -11   5  13 65.1659 4.36132   1
   3   5  13 71.0292 4.39942  -2
 -10   5  13 71.0292 4.39942   1
   2   5  13 1.09498 2.57004  -2
  -9   5  13 1.09498 2.57004   1
   1   5  13 54.5375 3.75032  -2
  -8   5  13 54.5375 3.75032   1
   0   5  13 34.3049 3.19922  -2
  -7   5  13 34.3049 3.19922   1
  -1   5  13 39.6310 3.23647  -2
  -6   5  13 39.6310 3.23647   1
  -2   5  13 95.5004 5.08595  -2
  -5   5  13 95.5004 5.08595   1
  -3   5  13 66.7055 4.02215  -2
  -4   5  13 66.7055 4.02215   1
  -4   5  13 29.5249 2.68653  -2
  -3   5  13 29.5249 2.68653   1
  -5   5  13 83.1682 4.00382  -2
  -2   5  13 83.1682 4.00382   1
  -6   5  13 58.3305 3.28145  -2
  -1   5  13 58.3305 3.28145   1
  -7   5  13 33.1124 2.62134  -2
   0   5  13 33.1124 2.62134   1
  -8   5  13 38.8621 3.00519  -2
   1   5  13 38.8621 3.00519   1
  -9   5  13 11.8479 2.85096  -2
   2   5  13 11.8479 2.85096   1
 -10   5  13 182.325 8.62370  -2
   3   5  13 182.325 8.62370   1
 -11   5  13 41.7425 3.59882  -2
   4   5  13 41.7425 3.59882   1
 -12   5  13 58.0242 4.24926  -2
   5   5  13 58.0242 4.24926   1
 -13   5  13 6.69057 3.47201  -2
   6   5  13 6.69057 3.47201   1
 -14   5  13 37.0672 4.26290  -2
   7   5  13 37.0672 4.26290   1
 -15   5  13 9.97277 4.15863  -2
   8   5  13 9.97277 4.15863   1
   3   6  13 8.97709 3.88861  -2
 -10   6  13 8.97709 3.88861   1
   2   6  13 -1.9266 3.68503  -2
  -9   6  13 -1.9266 3.68503   1
   1   6  13 25.5610 4.04680  -2
  -8   6  13 25.5610 4.04680   1
   0   6  13 19.9788 3.78399  -2
  -7   6  13 19.9788 3.78399   1
  -1   6  13 1.40363 3.38029  -2
  -6   6  13 1.40363 3.38029   1
  -2   6  13 8.22058 3.39497  -2
  -5   6  13 8.22058 3.39497   1
  -3   6  13 28.8525 3.97254  -2
  -4   6  13 28.8525 3.97254   1
  -4   6  13 13.3888 3.47982  -2
  -3   6  13 13.3888 3.47982   1
  -5   6  13 19.2063 3.27222  -2
  -2   6  13 19.2063 3.27222   1
  -6   6  13 -0.4827 3.03067  -2
  -1   6  13 -0.4827 3.03067   1
  -7   6  13 24.9354 3.49521  -2
   0   6  13 24.9354 3.49521   1
  -8   6  13 48.4196 4.20862  -2
   1   6  13 48.4196 4.20862   1
  -9   6  13 0.40919 3.69565  -2
   2   6  13 0.40919 3.69565   1
 -10   6  13 4.07855 3.60304  -2
   3   6  13 4.07855 3.60304   1
  14   0  14 147.584 11.0617  -2
 -21   0  14 147.584 11.0617   1
  13   0  14 290.524 18.9842  -2
 -20   0  14 290.524 18.9842   1
  12   0  14 119.056 9.39403  -2
 -19   0  14 119.056 9.39403   1
  11   0  14 -4.1300 4.34128  -2
 -18   0  14 -4.1300 4.34128   1
  10   0  14 33.5709 5.02256  -2
 -17   0  14 33.5709 5.02256   1
   9   0  14 60.4682 7.35393  -2
 -16   0  14 60.4682 7.35393   1
   8   0  14 136.719 11.8007  -2
 -15   0  14 136.719 11.8007   1
   7   0  14 1356.61 101.023  -2
 -14   0  14 1356.61 101.023   1
   6   0  14 159.814 10.8184  -2
 -13   0  14 159.814 10.8184   1
   5   0  14 462.097 35.1661  -2
 -12   0  14 462.097 35.1661   1
   4   0  14 222.104 24.1177  -2
 -11   0  14 222.104 24.1177   1
   3   0  14 128.519 8.65577  -2
 -10   0  14 128.519 8.65577   1
   2   0  14 12.2516 2.86949  -2
  -9   0  14 12.2516 2.86949   1
   1   0  14 45.7294 3.39220  -2
  -8   0  14 45.7294 3.39220   1
   0   0  14 130.404 6.49228  -2
  -7   0  14 130.404 6.49228   1
  -1   0  14 143.503 7.86989  -2
  -6   0  14 143.503 7.86989   1
  -2   0  14 22.4644 1.89538  -2
  -5   0  14 22.4644 1.89538   1
  -3   0  14 109.148 6.02795  -2
  -4   0  14 109.148 6.02795   1
  -4   0  14 308.506 19.0882  -2
  -3   0  14 308.506 19.0882   1
  -5   0  14 28.4634 2.13701  -2
  -2   0  14 28.4634 2.13701   1
  -6   0  14 410.144 19.5043  -2
  -1   0  14 410.144 19.5043   1
  -7   0  14 80.0736 3.91774  -2
   0   0  14 80.0736 3.91774   1
  -8   0  14 42.7985 2.91658  -2
   1   0  14 42.7985 2.91658   1
  -9   0  14 24.4921 3.08468  -2
   2   0  14 24.4921 3.08468   1
 -10   0  14 86.4621 6.22155  -2
   3   0  14 86.4621 6.22155   1
 -11   0  14 936.021 56.4314  -2
   4   0  14 936.021 56.4314   1
 -12   0  14 309.039 19.3770  -2
   5   0  14 309.039 19.3770   1
 -13   0  14 72.3432 5.89748  -2
   6   0  14 72.3432 5.89748   1
 -14   0  14 777.918 47.4258  -2
   7   0  14 777.918 47.4258   1
 -15   0  14 145.742 10.0938  -2
   8   0  14 145.742 10.0938   1
 -16   0  14 79.3857 6.55993  -2
   9   0  14 79.3857 6.55993   1
 -17   0  14 16.5365 4.05231  -2
  10   0  14 16.5365 4.05231   1
 -18   0  14 5.28839 4.00268  -2
  11   0  14 5.28839 4.00268   1
 -19   0  14 48.6501 5.60777  -2
  12   0  14 48.6501 5.60777   1
 -20   0  14 192.587 13.3221  -2
  13   0  14 192.587 13.3221   1
 -21   0  14 217.808 17.9293  -2
  14   0  14 217.808 17.9293   1
 -21   1  14 10.2630 2.24585   1
  13   1  14 5.30387 3.49235  -2
 -20   1  14 5.30387 3.49235   1
  12   1  14 17.9893 3.45581  -2
 -19   1  14 17.9893 3.45581   1
  11   1  14 21.2336 3.36273  -2
 -18   1  14 21.2336 3.36273   1
  10   1  14 34.8959 3.60174  -2
 -17   1  14 34.8959 3.60174   1
   9   1  14 60.1052 4.53998  -2
 -16   1  14 60.1052 4.53998   1
   8   1  14 32.3952 3.63074  -2
 -15   1  14 32.3952 3.63074   1
   7   1  14 7.02748 2.94145  -2
 -14   1  14 7.02748 2.94145   1
   6   1  14 71.3909 4.69713  -2
 -13   1  14 71.3909 4.69713   1
   5   1  14 17.6101 2.85333  -2
 -12   1  14 17.6101 2.85333   1
   4   1  14 82.7285 4.91502  -2
 -11   1  14 82.7285 4.91502   1
   3   1  14 35.1397 3.13427  -2
 -10   1  14 35.1397 3.13427   1
   2   1  14 54.1323 2.75236  -2
  -9   1  14 54.1323 2.75236   1
   1   1  14 207.430 7.45655  -2
  -8   1  14 207.430 7.45655   1
   0   1  14 22.5779 1.60202  -2
  -7   1  14 22.5779 1.60202   1
  -1   1  14 109.232 3.96532  -2
  -6   1  14 109.232 3.96532   1
  -2   1  14 77.9063 2.88089  -2
  -5   1  14 77.9063 2.88089   1
  -3   1  14 99.3241 3.85461  -2
  -4   1  14 99.3241 3.85461   1
  -4   1  14 146.440 5.41355  -2
  -3   1  14 146.440 5.41355   1
  -5   1  14 105.402 3.78096  -2
  -2   1  14 105.402 3.78096   1
  -6   1  14 56.5276 2.18106  -2
  -1   1  14 56.5276 2.18106   1
  -7   1  14 30.7272 1.49871  -2
   0   1  14 30.7272 1.49871   1
  -8   1  14 74.1445 2.81554  -2
   1   1  14 74.1445 2.81554   1
  -9   1  14 32.0218 2.45888  -2
   2   1  14 32.0218 2.45888   1
 -10   1  14 82.7027 4.91778  -2
   3   1  14 82.7027 4.91778   1
 -11   1  14 232.513 11.5858  -2
   4   1  14 232.513 11.5858   1
 -12   1  14 15.7009 2.31238  -2
   5   1  14 15.7009 2.31238   1
 -13   1  14 28.3887 2.64851  -2
   6   1  14 28.3887 2.64851   1
 -14   1  14 3.05907 2.35593  -2
   7   1  14 3.05907 2.35593   1
 -15   1  14 12.9484 2.59566  -2
   8   1  14 12.9484 2.59566   1
 -16   1  14 65.5759 4.16750  -2
   9   1  14 65.5759 4.16750   1
 -17   1  14 32.6908 3.35656  -2
  10   1  14 32.6908 3.35656   1
 -18   1  14 11.4775 3.00355  -2
  11   1  14 11.4775 3.00355   1
 -19   1  14 11.4002 3.12059  -2
  12   1  14 11.4002 3.12059   1
 -20   1  14 -1.9405 3.16464  -2
  13   1  14 -1.9405 3.16464   1
  13   2  14 28.7183 3.99669  -2
 -20   2  14 28.7183 3.99669   1
  12   2  14 10.7175 3.51203  -2
 -19   2  14 10.7175 3.51203   1
  11   2  14 12.1082 3.76513  -2
 -18   2  14 12.1082 3.76513   1
  10   2  14 35.8421 4.74641  -2
 -17   2  14 35.8421 4.74641   1
   9   2  14 45.3960 4.82648  -2
 -16   2  14 45.3960 4.82648   1
   8   2  14 0.10857 2.97683  -2
 -15   2  14 0.10857 2.97683   1
   7   2  14 2.33928 2.91775  -2
 -14   2  14 2.33928 2.91775   1
   6   2  14 71.3566 4.72588  -2
 -13   2  14 71.3566 4.72588   1
   5   2  14 40.1178 3.56196  -2
 -12   2  14 40.1178 3.56196   1
   4   2  14 79.1382 4.87098  -2
 -11   2  14 79.1382 4.87098   1
   3   2  14 6.61853 2.11743  -2
 -10   2  14 6.61853 2.11743   1
   2   2  14 11.8090 2.10151  -2
  -9   2  14 11.8090 2.10151   1
   1   2  14 7.74077 1.47290  -2
  -8   2  14 7.74077 1.47290   1
   0   2  14 36.3036 2.07473  -2
  -7   2  14 36.3036 2.07473   1
  -1   2  14 30.1003 1.81358  -2
  -6   2  14 30.1003 1.81358   1
  -2   2  14 41.8818 2.08429  -2
  -5   2  14 41.8818 2.08429   1
  -3   2  14 98.4060 4.87484  -2
  -4   2  14 98.4060 4.87484   1
  -4   2  14 37.6561 2.31528  -2
  -3   2  14 37.6561 2.31528   1
  -5   2  14 25.6495 1.42311  -2
  -2   2  14 25.6495 1.42311   1
  -6   2  14 40.3682 2.04189  -2
  -1   2  14 40.3682 2.04189   1
  -7   2  14 15.0529 1.52923  -2
   0   2  14 15.0529 1.52923   1
  -8   2  14 11.4391 1.64705  -2
   1   2  14 11.4391 1.64705   1
  -9   2  14 13.0557 1.67862  -2
   2   2  14 13.0557 1.67862   1
 -10   2  14 7.76979 2.12566  -2
   3   2  14 7.76979 2.12566   1
 -11   2  14 39.0590 3.47354  -2
   4   2  14 39.0590 3.47354   1
 -12   2  14 66.2611 4.51075  -2
   5   2  14 66.2611 4.51075   1
 -13   2  14 36.5977 3.55697  -2
   6   2  14 36.5977 3.55697   1
 -14   2  14 14.9607 3.07894  -2
   7   2  14 14.9607 3.07894   1
 -15   2  14 6.71530 3.02759  -2
   8   2  14 6.71530 3.02759   1
 -16   2  14 66.9337 4.40113  -2
   9   2  14 66.9337 4.40113   1
 -17   2  14 18.3337 3.13484  -2
  10   2  14 18.3337 3.13484   1
 -18   2  14 4.19606 3.04643  -2
  11   2  14 4.19606 3.04643   1
 -19   2  14 11.4673 3.33068  -2
  12   2  14 11.4673 3.33068   1
 -20   2  14 8.25739 3.35839  -2
  13   2  14 8.25739 3.35839   1
 -19   3  14 3.95778 1.88198   1
  11   3  14 6.73674 3.77777  -2
 -18   3  14 6.73674 3.77777   1
  10   3  14 4.90632 3.49809  -2
 -17   3  14 4.90632 3.49809   1
   9   3  14 152.941 8.36810  -2
 -16   3  14 152.941 8.36810   1
   8   3  14 1.96044 3.16208  -2
 -15   3  14 1.96044 3.16208   1
   7   3  14 9.11756 2.72657  -2
 -14   3  14 9.11756 2.72657   1
   6   3  14 145.716 6.58350  -2
 -13   3  14 145.716 6.58350   1
   5   3  14 49.6549 3.30198  -2
 -12   3  14 49.6549 3.30198   1
   4   3  14 153.299 6.79956  -2
 -11   3  14 153.299 6.79956   1
   3   3  14 104.765 4.89987  -2
 -10   3  14 104.765 4.89987   1
   2   3  14 308.257 12.5943  -2
  -9   3  14 308.257 12.5943   1
   1   3  14 286.129 11.7157  -2
  -8   3  14 286.129 11.7157   1
   0   3  14 337.897 13.7716  -2
  -7   3  14 337.897 13.7716   1
  -1   3  14 518.493 19.0471  -2
  -6   3  14 518.493 19.0471   1
  -2   3  14 157.089 5.98644  -2
  -5   3  14 157.089 5.98644   1
  -3   3  14 78.1301 3.04029  -2
  -4   3  14 78.1301 3.04029   1
  -4   3  14 155.028 5.80690  -2
  -3   3  14 155.028 5.80690   1
  -5   3  14 63.6212 2.83219  -2
  -2   3  14 63.6212 2.83219   1
  -6   3  14 664.500 23.0391  -2
  -1   3  14 664.500 23.0391   1
  -7   3  14 135.317 5.19336  -2
   0   3  14 135.317 5.19336   1
  -8   3  14 116.063 4.38737  -2
   1   3  14 116.063 4.38737   1
  -9   3  14 124.018 4.98955  -2
   2   3  14 124.018 4.98955   1
 -10   3  14 245.954 10.2841  -2
   3   3  14 245.954 10.2841   1
 -11   3  14 166.118 7.35376  -2
   4   3  14 166.118 7.35376   1
 -12   3  14 26.8006 2.74754  -2
   5   3  14 26.8006 2.74754   1
 -13   3  14 50.4965 3.72258  -2
   6   3  14 50.4965 3.72258   1
 -14   3  14 30.0086 3.25396  -2
   7   3  14 30.0086 3.25396   1
 -15   3  14 9.73331 2.96320  -2
   8   3  14 9.73331 2.96320   1
 -16   3  14 69.9055 4.67004  -2
   9   3  14 69.9055 4.67004   1
 -17   3  14 11.2350 3.12060  -2
  10   3  14 11.2350 3.12060   1
 -18   3  14 14.8694 3.32908  -2
  11   3  14 14.8694 3.32908   1
  10   4  14 30.4436 3.77214  -2
 -17   4  14 30.4436 3.77214   1
   9   4  14 31.3997 3.68008  -2
 -16   4  14 31.3997 3.68008   1
   8   4  14 12.5311 3.42557  -2
 -15   4  14 12.5311 3.42557   1
   7   4  14 14.5223 3.35812  -2
 -14   4  14 14.5223 3.35812   1
   6   4  14 30.6575 3.31418  -2
 -13   4  14 30.6575 3.31418   1
   5   4  14 45.1731 3.66002  -2
 -12   4  14 45.1731 3.66002   1
   4   4  14 -2.3557 2.66670  -2
 -11   4  14 -2.3557 2.66670   1
   3   4  14 3.68240 2.55073  -2
 -10   4  14 3.68240 2.55073   1
   2   4  14 30.8540 2.99579  -2
  -9   4  14 30.8540 2.99579   1
   1   4  14 46.7050 3.33244  -2
  -8   4  14 46.7050 3.33244   1
   0   4  14 95.1153 5.05698  -2
  -7   4  14 95.1153 5.05698   1
  -1   4  14 19.0950 2.64308  -2
  -6   4  14 19.0950 2.64308   1
  -2   4  14 20.2298 2.61889  -2
  -5   4  14 20.2298 2.61889   1
  -3   4  14 47.1283 3.26885  -2
  -4   4  14 47.1283 3.26885   1
  -4   4  14 21.8371 2.34747  -2
  -3   4  14 21.8371 2.34747   1
  -5   4  14 11.7558 2.19027  -2
  -2   4  14 11.7558 2.19027   1
  -6   4  14 49.9099 2.96568  -2
  -1   4  14 49.9099 2.96568   1
  -7   4  14 58.8319 3.22835  -2
   0   4  14 58.8319 3.22835   1
  -8   4  14 87.5462 4.06634  -2
   1   4  14 87.5462 4.06634   1
  -9   4  14 51.4795 3.70142  -2
   2   4  14 51.4795 3.70142   1
 -10   4  14 6.47281 2.53867  -2
   3   4  14 6.47281 2.53867   1
 -11   4  14 4.72143 2.74461  -2
   4   4  14 4.72143 2.74461   1
 -12   4  14 20.9215 3.10945  -2
   5   4  14 20.9215 3.10945   1
 -13   4  14 16.2405 3.11314  -2
   6   4  14 16.2405 3.11314   1
 -14   4  14 14.2477 3.21015  -2
   7   4  14 14.2477 3.21015   1
 -15   4  14 17.7244 3.79762  -2
   8   4  14 17.7244 3.79762   1
 -16   4  14 22.4117 3.50835  -2
   9   4  14 22.4117 3.50835   1
 -17   4  14 27.1598 5.29032  -2
  10   4  14 27.1598 5.29032   1
   7   5  14 0.65019 3.47189  -2
 -14   5  14 0.65019 3.47189   1
   6   5  14 39.3297 4.15525  -2
 -13   5  14 39.3297 4.15525   1
   5   5  14 12.5228 3.26055  -2
 -12   5  14 12.5228 3.26055   1
   4   5  14 20.5320 3.28712  -2
 -11   5  14 20.5320 3.28712   1
   3   5  14 24.7013 3.26183  -2
 -10   5  14 24.7013 3.26183   1
   2   5  14 8.23445 2.93670  -2
  -9   5  14 8.23445 2.93670   1
   1   5  14 0.40139 2.80067  -2
  -8   5  14 0.40139 2.80067   1
   0   5  14 2.81560 2.76161  -2
  -7   5  14 2.81560 2.76161   1
  -1   5  14 99.3377 5.41752  -2
  -6   5  14 99.3377 5.41752   1
  -2   5  14 31.8716 3.13517  -2
  -5   5  14 31.8716 3.13517   1
  -3   5  14 13.3965 2.70444  -2
  -4   5  14 13.3965 2.70444   1
  -4   5  14 2.69432 2.52776  -2
  -3   5  14 2.69432 2.52776   1
  -5   5  14 14.4507 2.40020  -2
  -2   5  14 14.4507 2.40020   1
  -6   5  14 46.9589 3.10543  -2
  -1   5  14 46.9589 3.10543   1
  -7   5  14 10.6294 2.41522  -2
   0   5  14 10.6294 2.41522   1
  -8   5  14 10.2360 2.63756  -2
   1   5  14 10.2360 2.63756   1
  -9   5  14 14.4512 3.05355  -2
   2   5  14 14.4512 3.05355   1
 -10   5  14 30.9897 3.48823  -2
   3   5  14 30.9897 3.48823   1
 -11   5  14 41.0506 4.16012  -2
   4   5  14 41.0506 4.16012   1
 -12   5  14 46.4102 4.10765  -2
   5   5  14 46.4102 4.10765   1
 -13   5  14 16.7190 3.48881  -2
   6   5  14 16.7190 3.48881   1
 -14   5  14 6.34845 3.83289  -2
   7   5  14 6.34845 3.83289   1
   2   6  14 4.85059 5.79197  -2
  -9   6  14 4.85059 5.79197   1
   1   6  14 15.8518 4.14776  -2
  -8   6  14 15.8518 4.14776   1
   0   6  14 6.38922 3.79677  -2
  -7   6  14 6.38922 3.79677   1
  -1   6  14 8.66878 3.64150  -2
  -6   6  14 8.66878 3.64150   1
  -2   6  14 4.23730 3.68353  -2
  -5   6  14 4.23730 3.68353   1
  -3   6  14 32.9454 4.20502  -2
  -4   6  14 32.9454 4.20502   1
  -4   6  14 29.4734 4.11216  -2
  -3   6  14 29.4734 4.11216   1
  -5   6  14 22.5101 3.90565  -2
  -2   6  14 22.5101 3.90565   1
  -6   6  14 23.4277 3.94360  -2
  -1   6  14 23.4277 3.94360   1
  -7   6  14 3.50723 3.36412  -2
   0   6  14 3.50723 3.36412   1
  -8   6  14 6.03849 4.03305  -2
   1   6  14 6.03849 4.03305   1
  -9   6  14 4.92041 5.89544  -2
   2   6  14 4.92041 5.89544   1
  12   0  15 -2.4610 4.26098  -2
 -20   0  15 -2.4610 4.26098   1
  11   0  15 5.95950 4.30328  -2
 -19   0  15 5.95950 4.30328   1
  10   0  15 0.20557 3.87556  -2
 -18   0  15 0.20557 3.87556   1
   9   0  15 -2.6660 3.75642  -2
 -17   0  15 -2.6660 3.75642   1
   8   0  15 -5.5334 4.44316  -2
 -16   0  15 -5.5334 4.44316   1
   7   0  15 39.1015 4.49463  -2
 -15   0  15 39.1015 4.49463   1
   6   0  15 0.09102 3.00427  -2
 -14   0  15 0.09102 3.00427   1
   5   0  15 -0.5789 2.84463  -2
 -13   0  15 -0.5789 2.84463   1
   4   0  15 0.63955 2.88479  -2
 -12   0  15 0.63955 2.88479   1
   3   0  15 9.77416 2.79434  -2
 -11   0  15 9.77416 2.79434   1
   2   0  15 -5.2681 2.35619  -2
 -10   0  15 -5.2681 2.35619   1
   1   0  15 -6.7099 2.18574  -2
  -9   0  15 -6.7099 2.18574   1
   0   0  15 3.74695 2.13371  -2
  -8   0  15 3.74695 2.13371   1
  -1   0  15 -0.5415 1.51000  -2
  -7   0  15 -0.5415 1.51000   1
  -2   0  15 -0.0646 1.50053  -2
  -6   0  15 -0.0646 1.50053   1
  -3   0  15 3.85610 1.52752  -2
  -5   0  15 3.85610 1.52752   1
  -4   0  15 1.39378 1.46711  -2
  -4   0  15 1.39378 1.46711   1
  -5   0  15 2.05297 1.53617  -2
  -3   0  15 2.05297 1.53617   1
  -6   0  15 -1.7424 1.46841  -2
  -2   0  15 -1.7424 1.46841   1
  -7   0  15 -1.2311 1.38545  -2
  -1   0  15 -1.2311 1.38545   1
  -8   0  15 9.73915 1.65396  -2
   0   0  15 9.73915 1.65396   1
  -9   0  15 2.70104 2.10928  -2
   1   0  15 2.70104 2.10928   1
 -10   0  15 -2.2593 2.29967  -2
   2   0  15 -2.2593 2.29967   1
 -11   0  15 0.56781 2.49048  -2
   3   0  15 0.56781 2.49048   1
 -12   0  15 9.67165 2.80242  -2
   4   0  15 9.67165 2.80242   1
 -13   0  15 -0.4024 2.76379  -2
   5   0  15 -0.4024 2.76379   1
 -14   0  15 0.84038 2.98245  -2
   6   0  15 0.84038 2.98245   1
 -15   0  15 10.5688 3.35383  -2
   7   0  15 10.5688 3.35383   1
 -16   0  15 6.07137 3.26642  -2
   8   0  15 6.07137 3.26642   1
 -17   0  15 0.28649 3.28143  -2
   9   0  15 0.28649 3.28143   1
 -18   0  15 0.12111 3.60185  -2
  10   0  15 0.12111 3.60185   1
 -19   0  15 -1.4737 3.88470  -2
  11   0  15 -1.4737 3.88470   1
 -20   0  15 -5.4711 3.98760  -2
  12   0  15 -5.4711 3.98760   1
  13   0  15 0.86027 2.55822   1
  12   1  15 0.71278 3.02561  -2
 -20   1  15 0.71278 3.02561   1
  11   1  15 13.9870 3.07479  -2
 -19   1  15 13.9870 3.07479   1
  10   1  15 16.7075 2.96006  -2
 -18   1  15 16.7075 2.96006   1
   9   1  15 127.476 6.55233  -2
 -17   1  15 127.476 6.55233   1
   8   1  15 11.5219 2.54113  -2
 -16   1  15 11.5219 2.54113   1
   7   1  15 16.4802 2.58547  -2
 -15   1  15 16.4802 2.58547   1
   6   1  15 106.385 5.45673  -2
 -14   1  15 106.385 5.45673   1
   5   1  15 22.7787 2.51113  -2
 -13   1  15 22.7787 2.51113   1
   4   1  15 223.728 10.1455  -2
 -12   1  15 223.728 10.1455   1
   3   1  15 93.6536 4.71687  -2
 -11   1  15 93.6536 4.71687   1
   2   1  15 47.1689 2.98359  -2
 -10   1  15 47.1689 2.98359   1
   1   1  15 53.8873 2.45298  -2
  -9   1  15 53.8873 2.45298   1
   0   1  15 280.028 9.95284  -2
  -8   1  15 280.028 9.95284   1
  -1   1  15 234.058 7.82713  -2
  -7   1  15 234.058 7.82713   1
  -2   1  15 56.1100 2.22419  -2
  -6   1  15 56.1100 2.22419   1
  -3   1  15 9.54918 1.05281  -2
  -5   1  15 9.54918 1.05281   1
  -4   1  15 88.6374 3.14236  -2
  -4   1  15 88.6374 3.14236   1
  -5   1  15 13.7374 1.12564  -2
  -3   1  15 13.7374 1.12564   1
  -6   1  15 63.6616 2.40572  -2
  -2   1  15 63.6616 2.40572   1
  -7   1  15 77.7851 2.70283  -2
  -1   1  15 77.7851 2.70283   1
  -8   1  15 396.704 13.1758  -2
   0   1  15 396.704 13.1758   1
  -9   1  15 30.3457 1.92205  -2
   1   1  15 30.3457 1.92205   1
 -10   1  15 32.9021 2.47142  -2
   2   1  15 32.9021 2.47142   1
 -11   1  15 184.806 8.41872  -2
   3   1  15 184.806 8.41872   1
 -12   1  15 95.8023 5.01445  -2
   4   1  15 95.8023 5.01445   1
 -13   1  15 14.4989 2.22890  -2
   5   1  15 14.4989 2.22890   1
 -14   1  15 71.3927 4.19837  -2
   6   1  15 71.3927 4.19837   1
 -15   1  15 9.97837 2.36048  -2
   7   1  15 9.97837 2.36048   1
 -16   1  15 26.5451 2.75081  -2
   8   1  15 26.5451 2.75081   1
 -17   1  15 46.1656 3.52107  -2
   9   1  15 46.1656 3.52107   1
 -18   1  15 11.0855 2.75631  -2
  10   1  15 11.0855 2.75631   1
 -19   1  15 16.0360 2.95317  -2
  11   1  15 16.0360 2.95317   1
 -20   1  15 5.86434 2.87608  -2
  12   1  15 5.86434 2.87608   1
  12   2  15 89.6869 5.49001  -2
 -20   2  15 89.6869 5.49001   1
  11   2  15 71.8544 4.66231  -2
 -19   2  15 71.8544 4.66231   1
  10   2  15 6.79073 2.82548  -2
 -18   2  15 6.79073 2.82548   1
   9   2  15 66.4524 4.78505  -2
 -17   2  15 66.4524 4.78505   1
   8   2  15 3.43469 2.88421  -2
 -16   2  15 3.43469 2.88421   1
   7   2  15 98.4835 5.30106  -2
 -15   2  15 98.4835 5.30106   1
   6   2  15 16.3725 2.57289  -2
 -14   2  15 16.3725 2.57289   1
   5   2  15 23.5464 2.67677  -2
 -13   2  15 23.5464 2.67677   1
   4   2  15 30.0448 2.76866  -2
 -12   2  15 30.0448 2.76866   1
   3   2  15 195.402 8.94886  -2
 -11   2  15 195.402 8.94886   1
   2   2  15 162.323 6.99339  -2
 -10   2  15 162.323 6.99339   1
   1   2  15 2.53183 1.80323  -2
  -9   2  15 2.53183 1.80323   1
   0   2  15 51.0305 2.68680  -2
  -8   2  15 51.0305 2.68680   1
  -1   2  15 102.056 4.24595  -2
  -7   2  15 102.056 4.24595   1
  -2   2  15 17.9739 1.57226  -2
  -6   2  15 17.9739 1.57226   1
  -3   2  15 0.75136 0.85163  -2
  -5   2  15 0.75136 0.85163   1
  -4   2  15 205.801 8.51786  -2
  -4   2  15 205.801 8.51786   1
  -5   2  15 8.55587 1.52432  -2
  -3   2  15 8.55587 1.52432   1
  -6   2  15 8.54527 1.24841  -2
  -2   2  15 8.54527 1.24841   1
  -7   2  15 102.816 3.85884  -2
  -1   2  15 102.816 3.85884   1
  -8   2  15 128.846 4.98838  -2
   0   2  15 128.846 4.98838   1
  -9   2  15 17.4878 1.47588  -2
   1   2  15 17.4878 1.47588   1
 -10   2  15 113.913 5.64043  -2
   2   2  15 113.913 5.64043   1
 -11   2  15 100.961 5.22423  -2
   3   2  15 100.961 5.22423   1
 -12   2  15 28.6346 2.64796  -2
   4   2  15 28.6346 2.64796   1
 -13   2  15 29.9721 2.78659  -2
   5   2  15 29.9721 2.78659   1
 -14   2  15 17.3391 2.57507  -2
   6   2  15 17.3391 2.57507   1
 -15   2  15 44.7005 3.41708  -2
   7   2  15 44.7005 3.41708   1
 -16   2  15 12.2107 2.64550  -2
   8   2  15 12.2107 2.64550   1
 -17   2  15 57.3783 3.99151  -2
   9   2  15 57.3783 3.99151   1
 -18   2  15 1.13295 2.72239  -2
  10   2  15 1.13295 2.72239   1
 -19   2  15 56.1202 4.20167  -2
  11   2  15 56.1202 4.20167   1
 -20   2  15 45.2868 6.16737  -2
  12   2  15 45.2868 6.16737   1
  10   3  15 12.9375 3.40344  -2
 -18   3  15 12.9375 3.40344   1
   9   3  15 9.43522 3.20146  -2
 -17   3  15 9.43522 3.20146   1
   8   3  15 65.6365 4.76070  -2
 -16   3  15 65.6365 4.76070   1
   7   3  15 22.4113 3.24643  -2
 -15   3  15 22.4113 3.24643   1
   6   3  15 38.2813 3.60967  -2
 -14   3  15 38.2813 3.60967   1
   5   3  15 10.7446 2.39843  -2
 -13   3  15 10.7446 2.39843   1
   4   3  15 52.7916 3.51994  -2
 -12   3  15 52.7916 3.51994   1
   3   3  15 45.6167 2.92916  -2
 -11   3  15 45.6167 2.92916   1
   2   3  15 13.3680 2.00789  -2
 -10   3  15 13.3680 2.00789   1
   1   3  15 25.6589 2.24495  -2
  -9   3  15 25.6589 2.24495   1
   0   3  15 59.3690 3.20222  -2
  -8   3  15 59.3690 3.20222   1
  -1   3  15 14.0055 1.57596  -2
  -7   3  15 14.0055 1.57596   1
  -2   3  15 152.605 5.94151  -2
  -6   3  15 152.605 5.94151   1
  -3   3  15 109.496 4.25648  -2
  -5   3  15 109.496 4.25648   1
  -4   3  15 65.2650 2.72216  -2
  -4   3  15 65.2650 2.72216   1
  -5   3  15 45.2959 2.23125  -2
  -3   3  15 45.2959 2.23125   1
  -6   3  15 44.8617 2.19009  -2
  -2   3  15 44.8617 2.19009   1
  -7   3  15 16.2568 1.51545  -2
  -1   3  15 16.2568 1.51545   1
  -8   3  15 33.6689 2.06498  -2
   0   3  15 33.6689 2.06498   1
  -9   3  15 28.8622 2.13661  -2
   1   3  15 28.8622 2.13661   1
 -10   3  15 40.7558 2.85545  -2
   2   3  15 40.7558 2.85545   1
 -11   3  15 48.6196 3.10826  -2
   3   3  15 48.6196 3.10826   1
 -12   3  15 34.1144 2.82206  -2
   4   3  15 34.1144 2.82206   1
 -13   3  15 10.6345 2.56741  -2
   5   3  15 10.6345 2.56741   1
 -14   3  15 21.5283 2.91379  -2
   6   3  15 21.5283 2.91379   1
 -15   3  15 12.1441 2.78413  -2
   7   3  15 12.1441 2.78413   1
 -16   3  15 44.4997 3.70765  -2
   8   3  15 44.4997 3.70765   1
 -17   3  15 -0.1278 2.88859  -2
   9   3  15 -0.1278 2.88859   1
 -18   3  15 18.7492 3.24664  -2
  10   3  15 18.7492 3.24664   1
   8   4  15 8.26877 2.84203  -2
 -16   4  15 8.26877 2.84203   1
   7   4  15 0.36632 2.91421  -2
 -15   4  15 0.36632 2.91421   1
   6   4  15 -2.8942 2.77033  -2
 -14   4  15 -2.8942 2.77033   1
   5   4  15 66.7336 4.20831  -2
 -13   4  15 66.7336 4.20831   1
   4   4  15 12.8178 2.57466  -2
 -12   4  15 12.8178 2.57466   1
   3   4  15 22.7443 2.68576  -2
 -11   4  15 22.7443 2.68576   1
   2   4  15 20.7379 2.66325  -2
 -10   4  15 20.7379 2.66325   1
   1   4  15 8.87914 2.25858  -2
  -9   4  15 8.87914 2.25858   1
   0   4  15 19.9284 2.51683  -2
  -8   4  15 19.9284 2.51683   1
  -1   4  15 10.1431 2.30970  -2
  -7   4  15 10.1431 2.30970   1
  -2   4  15 14.1484 2.29563  -2
  -6   4  15 14.1484 2.29563   1
  -3   4  15 11.0178 2.19580  -2
  -5   4  15 11.0178 2.19580   1
  -4   4  15 -3.7072 1.99017  -2
  -4   4  15 -3.7072 1.99017   1
  -5   4  15 6.08850 1.94720  -2
  -3   4  15 6.08850 1.94720   1
  -6   4  15 15.0902 2.12520  -2
  -2   4  15 15.0902 2.12520   1
  -7   4  15 9.93137 1.95954  -2
  -1   4  15 9.93137 1.95954   1
  -8   4  15 49.4910 2.86490  -2
   0   4  15 49.4910 2.86490   1
  -9   4  15 5.81957 2.11885  -2
   1   4  15 5.81957 2.11885   1
 -10   4  15 15.0183 2.42522  -2
   2   4  15 15.0183 2.42522   1
 -11   4  15 59.6491 3.89937  -2
   3   4  15 59.6491 3.89937   1
 -12   4  15 26.5253 3.04475  -2
   4   4  15 26.5253 3.04475   1
 -13   4  15 30.5949 3.23237  -2
   5   4  15 30.5949 3.23237   1
 -14   4  15 -1.6386 2.72709  -2
   6   4  15 -1.6386 2.72709   1
 -15   4  15 10.4930 3.36794  -2
   7   4  15 10.4930 3.36794   1
 -16   4  15 8.90668 3.53396  -2
   8   4  15 8.90668 3.53396   1
   5   5  15 19.9382 3.17414  -2
 -13   5  15 19.9382 3.17414   1
   4   5  15 25.1787 3.21833  -2
 -12   5  15 25.1787 3.21833   1
   3   5  15 42.0435 3.53661  -2
 -11   5  15 42.0435 3.53661   1
   2   5  15 23.5935 2.96683  -2
 -10   5  15 23.5935 2.96683   1
   1   5  15 51.3804 3.70865  -2
  -9   5  15 51.3804 3.70865   1
   0   5  15 40.8509 3.33256  -2
  -8   5  15 40.8509 3.33256   1
  -1   5  15 94.6916 5.18455  -2
  -7   5  15 94.6916 5.18455   1
  -2   5  15 75.3193 4.33631  -2
  -6   5  15 75.3193 4.33631   1
  -3   5  15 57.3251 3.79399  -2
  -5   5  15 57.3251 3.79399   1
  -4   5  15 2.21600 2.35857  -2
  -4   5  15 2.21600 2.35857   1
  -5   5  15 21.3248 2.64228  -2
  -3   5  15 21.3248 2.64228   1
  -6   5  15 88.6994 4.44881  -2
  -2   5  15 88.6994 4.44881   1
  -7   5  15 56.4437 3.30324  -2
  -1   5  15 56.4437 3.30324   1
  -8   5  15 66.4319 3.57253  -2
   0   5  15 66.4319 3.57253   1
  -9   5  15 142.749 7.07232  -2
   1   5  15 142.749 7.07232   1
 -10   5  15 59.2959 4.09392  -2
   2   5  15 59.2959 4.09392   1
 -11   5  15 65.1931 4.76758  -2
   3   5  15 65.1931 4.76758   1
 -12   5  15 24.8886 3.31105  -2
   4   5  15 24.8886 3.31105   1
 -13   5  15 8.92512 3.06436  -2
   5   5  15 8.92512 3.06436   1
  -1   6  15 7.56944 5.43079  -2
  -7   6  15 7.56944 5.43079   1
  -2   6  15 8.13914 3.46458  -2
  -6   6  15 8.13914 3.46458   1
  -3   6  15 14.3684 3.48167  -2
  -5   6  15 14.3684 3.48167   1
  -4   6  15 1.07021 3.30801  -2
  -4   6  15 1.07021 3.30801   1
  -5   6  15 7.02809 3.29201  -2
  -3   6  15 7.02809 3.29201   1
  -6   6  15 19.3484 3.56200  -2
  -2   6  15 19.3484 3.56200   1
  -7   6  15 12.3726 5.01476  -2
  -1   6  15 12.3726 5.01476   1
  12   0  16 34.4583 12.4879  -2
 -20   0  16 34.4583 12.4879   1
  11   0  16 135.248 19.3021  -2
 -19   0  16 135.248 19.3021   1
  10   0  16 10.1035 10.1313  -2
 -18   0  16 10.1035 10.1313   1
   9   0  16 20.4718 10.0044  -2
 -17   0  16 20.4718 10.0044   1
   8   0  16 159.333 20.8419  -2
 -16   0  16 159.333 20.8419   1
   7   0  16 108.840 15.6908  -2
 -15   0  16 108.840 15.6908   1
   6   0  16 110.627 15.5029  -2
 -14   0  16 110.627 15.5029   1
   5   0  16 203.600 24.7764  -2
 -13   0  16 203.600 24.7764   1
   4   0  16 109.936 15.0216  -2
 -12   0  16 109.936 15.0216   1
   3   0  16 178.842 21.7172  -2
 -11   0  16 178.842 21.7172   1
   2   0  16 6.81826 4.15774  -2
 -10   0  16 6.81826 4.15774   1
   1   0  16 86.3953 11.9049  -2
  -9   0  16 86.3953 11.9049   1
   0   0  16 32.3133 4.49712  -2
  -8   0  16 32.3133 4.49712   1
  -1   0  16 19.5033 3.49489  -2
  -7   0  16 19.5033 3.49489   1
  -2   0  16 94.9737 5.62381  -2
  -6   0  16 94.9737 5.62381   1
  -3   0  16 53.8020 3.47021  -2
  -5   0  16 53.8020 3.47021   1
  -4   0  16 748.419 54.4914  -2
  -4   0  16 748.419 54.4914   1
  -5   0  16 95.4533 5.41253  -2
  -3   0  16 95.4533 5.41253   1
  -6   0  16 139.392 8.54749  -2
  -2   0  16 139.392 8.54749   1
  -7   0  16 9.96828 2.34012  -2
  -1   0  16 9.96828 2.34012   1
  -8   0  16 50.8473 3.92613  -2
   0   0  16 50.8473 3.92613   1
  -9   0  16 210.717 13.2902  -2
   1   0  16 210.717 13.2902   1
 -10   0  16 17.9728 3.15198  -2
   2   0  16 17.9728 3.15198   1
 -11   0  16 341.831 21.4014  -2
   3   0  16 341.831 21.4014   1
 -12   0  16 154.023 13.3385  -2
   4   0  16 154.023 13.3385   1
 -13   0  16 252.066 20.4748  -2
   5   0  16 252.066 20.4748   1
 -14   0  16 230.736 19.0703  -2
   6   0  16 230.736 19.0703   1
 -15   0  16 224.868 18.6896  -2
   7   0  16 224.868 18.6896   1
 -16   0  16 83.6242 9.16105  -2
   8   0  16 83.6242 9.16105   1
 -17   0  16 26.1098 6.25111  -2
   9   0  16 26.1098 6.25111   1
 -18   0  16 15.0088 4.50208  -2
  10   0  16 15.0088 4.50208   1
 -19   0  16 173.114 12.1748  -2
  11   0  16 173.114 12.1748   1
 -20   0  16 46.8282 7.03604  -2
  12   0  16 46.8282 7.03604   1
 -20   1  16 0.94850 1.86078   1
  11   1  16 8.26135 5.34161  -2
 -19   1  16 8.26135 5.34161   1
  10   1  16 3.85451 6.69015  -2
 -18   1  16 3.85451 6.69015   1
   9   1  16 24.5511 7.00204  -2
 -17   1  16 24.5511 7.00204   1
   8   1  16 18.9207 6.56482  -2
 -16   1  16 18.9207 6.56482   1
   7   1  16 -0.7592 5.63135  -2
 -15   1  16 -0.7592 5.63135   1
   6   1  16 31.6722 6.33426  -2
 -14   1  16 31.6722 6.33426   1
   5   1  16 27.7647 4.39730  -2
 -13   1  16 27.7647 4.39730   1
   4   1  16 213.383 14.1375  -2
 -12   1  16 213.383 14.1375   1
   3   1  16 37.8898 5.82994  -2
 -11   1  16 37.8898 5.82994   1
   2   1  16 0.26298 3.12030  -2
 -10   1  16 0.26298 3.12030   1
   1   1  16 -3.2720 2.97530  -2
  -9   1  16 -3.2720 2.97530   1
   0   1  16 79.9477 3.77754  -2
  -8   1  16 79.9477 3.77754   1
  -1   1  16 73.6418 3.26882  -2
  -7   1  16 73.6418 3.26882   1
  -2   1  16 63.1876 2.94460  -2
  -6   1  16 63.1876 2.94460   1
  -3   1  16 7.80013 1.27138  -2
  -5   1  16 7.80013 1.27138   1
  -4   1  16 72.8639 3.90371  -2
  -4   1  16 72.8639 3.90371   1
  -5   1  16 10.7975 2.02261  -2
  -3   1  16 10.7975 2.02261   1
  -6   1  16 58.2265 2.73427  -2
  -2   1  16 58.2265 2.73427   1
  -7   1  16 148.368 5.64148  -2
  -1   1  16 148.368 5.64148   1
  -8   1  16 114.999 4.93588  -2
   0   1  16 114.999 4.93588   1
  -9   1  16 -1.9576 2.14977  -2
   1   1  16 -1.9576 2.14977   1
 -10   1  16 3.45999 2.51749  -2
   2   1  16 3.45999 2.51749   1
 -11   1  16 27.1437 3.12917  -2
   3   1  16 27.1437 3.12917   1
 -12   1  16 98.3692 5.87475  -2
   4   1  16 98.3692 5.87475   1
 -13   1  16 66.1593 4.61646  -2
   5   1  16 66.1593 4.61646   1
 -14   1  16 27.0823 3.52250  -2
   6   1  16 27.0823 3.52250   1
 -15   1  16 3.64298 3.05516  -2
   7   1  16 3.64298 3.05516   1
 -16   1  16 36.9144 3.87478  -2
   8   1  16 36.9144 3.87478   1
 -17   1  16 12.8856 3.42513  -2
   9   1  16 12.8856 3.42513   1
 -18   1  16 12.0953 3.60456  -2
  10   1  16 12.0953 3.60456   1
 -19   1  16 3.39885 3.54677  -2
  11   1  16 3.39885 3.54677   1
  11   2  16 28.5934 6.09999  -2
 -19   2  16 28.5934 6.09999   1
  10   2  16 12.5745 5.26247  -2
 -18   2  16 12.5745 5.26247   1
   9   2  16 3.30223 4.84520  -2
 -17   2  16 3.30223 4.84520   1
   8   2  16 3.63920 4.77367  -2
 -16   2  16 3.63920 4.77367   1
   7   2  16 20.7971 4.74619  -2
 -15   2  16 20.7971 4.74619   1
   6   2  16 3.37456 3.50930  -2
 -14   2  16 3.37456 3.50930   1
   5   2  16 57.0931 4.84247  -2
 -13   2  16 57.0931 4.84247   1
   4   2  16 11.2586 3.30347  -2
 -12   2  16 11.2586 3.30347   1
   3   2  16 84.8820 5.83560  -2
 -11   2  16 84.8820 5.83560   1
   2   2  16 95.2160 6.19784  -2
 -10   2  16 95.2160 6.19784   1
   1   2  16 13.3945 2.67970  -2
  -9   2  16 13.3945 2.67970   1
   0   2  16 1.89682 2.49633  -2
  -8   2  16 1.89682 2.49633   1
  -1   2  16 114.877 6.30428  -2
  -7   2  16 114.877 6.30428   1
  -2   2  16 45.7730 3.93789  -2
  -6   2  16 45.7730 3.93789   1
  -3   2  16 22.3213 3.04418  -2
  -5   2  16 22.3213 3.04418   1
  -4   2  16 2.99040 2.13827  -2
  -4   2  16 2.99040 2.13827   1
  -5   2  16 12.4457 2.08696  -2
  -3   2  16 12.4457 2.08696   1
  -6   2  16 57.3658 3.04233  -2
  -2   2  16 57.3658 3.04233   1
  -7   2  16 315.364 11.3694  -2
  -1   2  16 315.364 11.3694   1
  -8   2  16 13.5112 2.11009  -2
   0   2  16 13.5112 2.11009   1
  -9   2  16 22.9361 2.72868  -2
   1   2  16 22.9361 2.72868   1
 -10   2  16 44.1393 3.75714  -2
   2   2  16 44.1393 3.75714   1
 -11   2  16 35.9294 3.56681  -2
   3   2  16 35.9294 3.56681   1
 -12   2  16 15.5153 3.08221  -2
   4   2  16 15.5153 3.08221   1
 -13   2  16 26.6391 3.43605  -2
   5   2  16 26.6391 3.43605   1
 -14   2  16 22.9904 3.50038  -2
   6   2  16 22.9904 3.50038   1
 -15   2  16 7.76756 3.28551  -2
   7   2  16 7.76756 3.28551   1
 -16   2  16 1.39230 3.29029  -2
   8   2  16 1.39230 3.29029   1
 -17   2  16 13.3853 3.51919  -2
   9   2  16 13.3853 3.51919   1
 -18   2  16 9.73762 3.62703  -2
  10   2  16 9.73762 3.62703   1
 -19   2  16 18.7151 4.42710  -2
  11   2  16 18.7151 4.42710   1
 -18   3  16 53.2071 3.58303   1
   9   3  16 27.6888 5.35071  -2
 -17   3  16 27.6888 5.35071   1
   8   3  16 8.19136 4.45588  -2
 -16   3  16 8.19136 4.45588   1
   7   3  16 15.4375 4.62353  -2
 -15   3  16 15.4375 4.62353   1
   6   3  16 -3.6821 5.03488  -2
 -14   3  16 -3.6821 5.03488   1
   5   3  16 5.76288 5.10737  -2
 -13   3  16 5.76288 5.10737   1
   4   3  16 485.288 37.0238  -2
 -12   3  16 485.288 37.0238   1
   3   3  16 40.6604 6.15925  -2
 -11   3  16 40.6604 6.15925   1
   2   3  16 16.2750 3.99679  -2
 -10   3  16 16.2750 3.99679   1
   1   3  16 27.0089 3.02340  -2
  -9   3  16 27.0089 3.02340   1
   0   3  16 455.050 19.6811  -2
  -8   3  16 455.050 19.6811   1
  -1   3  16 112.503 6.34344  -2
  -7   3  16 112.503 6.34344   1
  -2   3  16 97.5519 4.04742  -2
  -6   3  16 97.5519 4.04742   1
  -3   3  16 17.1590 1.89805  -2
  -5   3  16 17.1590 1.89805   1
  -4   3  16 4.36236 2.21182  -2
  -4   3  16 4.36236 2.21182   1
  -5   3  16 7.39330 1.56462  -2
  -3   3  16 7.39330 1.56462   1
  -6   3  16 235.382 9.16225  -2
  -2   3  16 235.382 9.16225   1
  -7   3  16 85.7510 3.27793  -2
  -1   3  16 85.7510 3.27793   1
  -8   3  16 209.308 7.88192  -2
   0   3  16 209.308 7.88192   1
  -9   3  16 18.2733 2.35001  -2
   1   3  16 18.2733 2.35001   1
 -10   3  16 29.3404 3.19604  -2
   2   3  16 29.3404 3.19604   1
 -11   3  16 13.6361 3.19145  -2
   3   3  16 13.6361 3.19145   1
 -12   3  16 231.986 13.3406  -2
   4   3  16 231.986 13.3406   1
 -13   3  16 8.59320 3.34605  -2
   5   3  16 8.59320 3.34605   1
 -14   3  16 1.38766 3.35489  -2
   6   3  16 1.38766 3.35489   1
 -15   3  16 11.7062 3.57700  -2
   7   3  16 11.7062 3.57700   1
 -16   3  16 9.69604 3.66066  -2
   8   3  16 9.69604 3.66066   1
 -17   3  16 54.7633 4.96252  -2
   9   3  16 54.7633 4.96252   1
 -16   4  16 1.60485 1.75016   1
   7   4  16 15.7367 6.28123  -2
 -15   4  16 15.7367 6.28123   1
   6   4  16 26.1192 6.27745  -2
 -14   4  16 26.1192 6.27745   1
   5   4  16 2.12751 4.28833  -2
 -13   4  16 2.12751 4.28833   1
   4   4  16 8.91559 3.91270  -2
 -12   4  16 8.91559 3.91270   1
   3   4  16 14.1512 3.14244  -2
 -11   4  16 14.1512 3.14244   1
   2   4  16 13.4421 3.79393  -2
 -10   4  16 13.4421 3.79393   1
   1   4  16 60.9012 5.08162  -2
  -9   4  16 60.9012 5.08162   1
   0   4  16 6.69221 3.56665  -2
  -8   4  16 6.69221 3.56665   1
  -1   4  16 44.6281 3.67737  -2
  -7   4  16 44.6281 3.67737   1
  -2   4  16 83.3248 5.11138  -2
  -6   4  16 83.3248 5.11138   1
  -3   4  16 34.5514 3.23894  -2
  -5   4  16 34.5514 3.23894   1
  -4   4  16 99.9522 5.49771  -2
  -4   4  16 99.9522 5.49771   1
  -5   4  16 23.3653 2.84136  -2
  -3   4  16 23.3653 2.84136   1
  -6   4  16 29.9393 2.82544  -2
  -2   4  16 29.9393 2.82544   1
  -7   4  16 36.1286 2.90789  -2
  -1   4  16 36.1286 2.90789   1
  -8   4  16 23.7824 2.92250  -2
   0   4  16 23.7824 2.92250   1
  -9   4  16 70.2621 3.82068  -2
   1   4  16 70.2621 3.82068   1
 -10   4  16 10.4827 2.97327  -2
   2   4  16 10.4827 2.97327   1
 -11   4  16 32.9900 3.57272  -2
   3   4  16 32.9900 3.57272   1
 -12   4  16 25.4155 3.36417  -2
   4   4  16 25.4155 3.36417   1
 -13   4  16 3.76773 3.18029  -2
   5   4  16 3.76773 3.18029   1
 -14   4  16 15.7244 3.80551  -2
   6   4  16 15.7244 3.80551   1
 -15   4  16 23.0662 4.70900  -2
   7   4  16 23.0662 4.70900   1
   4   5  16 4.87113 4.63048  -2
 -12   5  16 4.87113 4.63048   1
   3   5  16 4.38178 4.03501  -2
 -11   5  16 4.38178 4.03501   1
   2   5  16 33.8882 3.81716  -2
 -10   5  16 33.8882 3.81716   1
   1   5  16 48.8908 4.29573  -2
  -9   5  16 48.8908 4.29573   1
   0   5  16 103.423 6.27670  -2
  -8   5  16 103.423 6.27670   1
  -1   5  16 17.3461 3.29736  -2
  -7   5  16 17.3461 3.29736   1
  -2   5  16 -0.8599 3.00242  -2
  -6   5  16 -0.8599 3.00242   1
  -3   5  16 23.7833 3.27085  -2
  -5   5  16 23.7833 3.27085   1
  -4   5  16 0.64008 2.79724  -2
  -4   5  16 0.64008 2.79724   1
  -5   5  16 13.1125 3.04762  -2
  -3   5  16 13.1125 3.04762   1
  -6   5  16 -0.7151 2.68660  -2
  -2   5  16 -0.7151 2.68660   1
  -7   5  16 4.15573 2.71587  -2
  -1   5  16 4.15573 2.71587   1
  -8   5  16 44.9893 3.73870  -2
   0   5  16 44.9893 3.73870   1
  -9   5  16 86.4738 5.61394  -2
   1   5  16 86.4738 5.61394   1
 -10   5  16 71.4947 5.26350  -2
   2   5  16 71.4947 5.26350   1
 -11   5  16 12.6937 3.44747  -2
   3   5  16 12.6937 3.44747   1
 -12   5  16 4.89608 3.36939  -2
   4   5  16 4.89608 3.36939   1
  10   0  17 -4.2911 3.86424  -2
 -19   0  17 -4.2911 3.86424   1
   9   0  17 -1.1445 3.66293  -2
 -18   0  17 -1.1445 3.66293   1
   8   0  17 20.5311 4.08536  -2
 -17   0  17 20.5311 4.08536   1
   7   0  17 -3.1071 3.30697  -2
 -16   0  17 -3.1071 3.30697   1
   6   0  17 -9.2297 3.13865  -2
 -15   0  17 -9.2297 3.13865   1
   5   0  17 -2.5810 3.01495  -2
 -14   0  17 -2.5810 3.01495   1
   4   0  17 1.89953 2.75947  -2
 -13   0  17 1.89953 2.75947   1
   3   0  17 -2.5813 2.63925  -2
 -12   0  17 -2.5813 2.63925   1
   2   0  17 -1.5428 2.47338  -2
 -11   0  17 -1.5428 2.47338   1
   1   0  17 -4.5513 2.33090  -2
 -10   0  17 -4.5513 2.33090   1
   0   0  17 0.22731 2.31840  -2
  -9   0  17 0.22731 2.31840   1
  -1   0  17 -1.8315 2.20555  -2
  -8   0  17 -1.8315 2.20555   1
  -2   0  17 1.13750 2.16457  -2
  -7   0  17 1.13750 2.16457   1
  -3   0  17 9.72160 1.98788  -2
  -6   0  17 9.72160 1.98788   1
  -4   0  17 -0.1639 1.81329  -2
  -5   0  17 -0.1639 1.81329   1
  -5   0  17 1.80365 1.86517  -2
  -4   0  17 1.80365 1.86517   1
  -6   0  17 13.9749 2.02804  -2
  -3   0  17 13.9749 2.02804   1
  -7   0  17 -0.1846 1.63780  -2
  -2   0  17 -0.1846 1.63780   1
  -8   0  17 -0.8760 1.91395  -2
  -1   0  17 -0.8760 1.91395   1
  -9   0  17 15.0258 2.29652  -2
   0   0  17 15.0258 2.29652   1
 -10   0  17 -2.4252 2.29952  -2
   1   0  17 -2.4252 2.29952   1
 -11   0  17 -4.1925 2.35700  -2
   2   0  17 -4.1925 2.35700   1
 -12   0  17 6.90454 2.69511  -2
   3   0  17 6.90454 2.69511   1
 -13   0  17 6.16399 2.73911  -2
   4   0  17 6.16399 2.73911   1
 -14   0  17 1.62124 2.86165  -2
   5   0  17 1.62124 2.86165   1
 -15   0  17 3.89341 2.95887  -2
   6   0  17 3.89341 2.95887   1
 -16   0  17 -2.1744 3.01207  -2
   7   0  17 -2.1744 3.01207   1
 -17   0  17 1.10916 3.27320  -2
   8   0  17 1.10916 3.27320   1
 -18   0  17 -1.1598 3.39529  -2
   9   0  17 -1.1598 3.39529   1
 -19   0  17 -0.5893 3.64855  -2
  10   0  17 -0.5893 3.64855   1
  11   0  17 0.25456 2.43765   1
  10   1  17 48.1887 3.77666  -2
 -19   1  17 48.1887 3.77666   1
   9   1  17 11.8168 2.71708  -2
 -18   1  17 11.8168 2.71708   1
   8   1  17 29.5281 3.07305  -2
 -17   1  17 29.5281 3.07305   1
   7   1  17 1.20703 2.33779  -2
 -16   1  17 1.20703 2.33779   1
   6   1  17 22.1437 2.63956  -2
 -15   1  17 22.1437 2.63956   1
   5   1  17 66.0680 3.91871  -2
 -14   1  17 66.0680 3.91871   1
   4   1  17 68.0516 3.90459  -2
 -13   1  17 68.0516 3.90459   1
   3   1  17 17.9149 2.25866  -2
 -12   1  17 17.9149 2.25866   1
   2   1  17 90.8040 4.61709  -2
 -11   1  17 90.8040 4.61709   1
   1   1  17 53.9975 3.19801  -2
 -10   1  17 53.9975 3.19801   1
   0   1  17 19.1936 2.02621  -2
  -9   1  17 19.1936 2.02621   1
  -1   1  17 152.788 6.43446  -2
  -8   1  17 152.788 6.43446   1
  -2   1  17 149.234 5.89812  -2
  -7   1  17 149.234 5.89812   1
  -3   1  17 8.57860 1.27790  -2
  -6   1  17 8.57860 1.27790   1
  -4   1  17 77.2770 3.14279  -2
  -5   1  17 77.2770 3.14279   1
  -5   1  17 143.612 5.26390  -2
  -4   1  17 143.612 5.26390   1
  -6   1  17 1.41896 1.01271  -2
  -3   1  17 1.41896 1.01271   1
  -7   1  17 87.1904 3.20066  -2
  -2   1  17 87.1904 3.20066   1
  -8   1  17 69.7441 2.83821  -2
  -1   1  17 69.7441 2.83821   1
  -9   1  17 16.8604 1.77430  -2
   0   1  17 16.8604 1.77430   1
 -10   1  17 39.1014 2.69475  -2
   1   1  17 39.1014 2.69475   1
 -11   1  17 60.1903 3.57711  -2
   2   1  17 60.1903 3.57711   1
 -12   1  17 16.3739 2.21819  -2
   3   1  17 16.3739 2.21819   1
 -13   1  17 20.7398 2.41403  -2
   4   1  17 20.7398 2.41403   1
 -14   1  17 23.6492 2.57965  -2
   5   1  17 23.6492 2.57965   1
 -15   1  17 10.6940 2.33013  -2
   6   1  17 10.6940 2.33013   1
 -16   1  17 5.86439 2.38662  -2
   7   1  17 5.86439 2.38662   1
 -17   1  17 35.7155 3.12555  -2
   8   1  17 35.7155 3.12555   1
 -18   1  17 2.16450 2.52731  -2
   9   1  17 2.16450 2.52731   1
 -19   1  17 20.0246 2.99004  -2
  10   1  17 20.0246 2.99004   1
   9   2  17 46.6742 3.77395  -2
 -18   2  17 46.6742 3.77395   1
   8   2  17 2.84939 2.55574  -2
 -17   2  17 2.84939 2.55574   1
   7   2  17 20.9459 2.81334  -2
 -16   2  17 20.9459 2.81334   1
   6   2  17 95.7009 5.16260  -2
 -15   2  17 95.7009 5.16260   1
   5   2  17 18.3846 2.50848  -2
 -14   2  17 18.3846 2.50848   1
   4   2  17 140.991 6.30703  -2
 -13   2  17 140.991 6.30703   1
   3   2  17 189.322 7.96365  -2
 -12   2  17 189.322 7.96365   1
   2   2  17 4.19148 1.78612  -2
 -11   2  17 4.19148 1.78612   1
   1   2  17 4.58960 1.73945  -2
 -10   2  17 4.58960 1.73945   1
   0   2  17 74.1446 3.37526  -2
  -9   2  17 74.1446 3.37526   1
  -1   2  17 23.3981 1.58922  -2
  -8   2  17 23.3981 1.58922   1
  -2   2  17 53.7678 2.39264  -2
  -7   2  17 53.7678 2.39264   1
  -3   2  17 42.3433 2.44558  -2
  -6   2  17 42.3433 2.44558   1
  -4   2  17 18.6889 1.86429  -2
  -5   2  17 18.6889 1.86429   1
  -5   2  17 18.9742 1.65882  -2
  -4   2  17 18.9742 1.65882   1
  -6   2  17 44.0618 2.21818  -2
  -3   2  17 44.0618 2.21818   1
  -7   2  17 123.256 3.88944  -2
  -2   2  17 123.256 3.88944   1
  -8   2  17 28.2110 1.59701  -2
  -1   2  17 28.2110 1.59701   1
  -9   2  17 158.931 6.71611  -2
   0   2  17 158.931 6.71611   1
 -10   2  17 9.92954 1.84319  -2
   1   2  17 9.92954 1.84319   1
 -11   2  17 0.30493 1.96608  -2
   2   2  17 0.30493 1.96608   1
 -12   2  17 144.270 6.97587  -2
   3   2  17 144.270 6.97587   1
 -13   2  17 73.4838 4.31708  -2
   4   2  17 73.4838 4.31708   1
 -14   2  17 21.0148 2.60879  -2
   5   2  17 21.0148 2.60879   1
 -15   2  17 48.9865 3.57474  -2
   6   2  17 48.9865 3.57474   1
 -16   2  17 45.3443 3.47276  -2
   7   2  17 45.3443 3.47276   1
 -17   2  17 12.2546 2.75791  -2
   8   2  17 12.2546 2.75791   1
 -18   2  17 21.8194 3.06686  -2
   9   2  17 21.8194 3.06686   1
  10   2  17 3.28924 1.87373   1
   8   3  17 5.36134 3.06961  -2
 -17   3  17 5.36134 3.06961   1
   7   3  17 -1.4358 2.85690  -2
 -16   3  17 -1.4358 2.85690   1
   6   3  17 13.5754 3.10646  -2
 -15   3  17 13.5754 3.10646   1
   5   3  17 5.93726 2.82203  -2
 -14   3  17 5.93726 2.82203   1
   4   3  17 49.9091 3.96487  -2
 -13   3  17 49.9091 3.96487   1
   3   3  17 13.5684 2.84391  -2
 -12   3  17 13.5684 2.84391   1
   2   3  17 78.3282 4.88491  -2
 -11   3  17 78.3282 4.88491   1
   1   3  17 10.1877 1.89363  -2
 -10   3  17 10.1877 1.89363   1
   0   3  17 67.8061 3.50674  -2
  -9   3  17 67.8061 3.50674   1
  -1   3  17 31.2402 2.33248  -2
  -8   3  17 31.2402 2.33248   1
  -2   3  17 24.3492 1.74891  -2
  -7   3  17 24.3492 1.74891   1
  -3   3  17 20.0929 1.49645  -2
  -6   3  17 20.0929 1.49645   1
  -4   3  17 28.2496 1.68118  -2
  -5   3  17 28.2496 1.68118   1
  -5   3  17 78.5898 3.23798  -2
  -4   3  17 78.5898 3.23798   1
  -6   3  17 58.4782 2.68651  -2
  -3   3  17 58.4782 2.68651   1
  -7   3  17 37.0688 1.94391  -2
  -2   3  17 37.0688 1.94391   1
  -8   3  17 8.14917 1.66852  -2
  -1   3  17 8.14917 1.66852   1
  -9   3  17 59.7778 3.15802  -2
   0   3  17 59.7778 3.15802   1
 -10   3  17 7.40590 2.08421  -2
   1   3  17 7.40590 2.08421   1
 -11   3  17 73.0728 3.96891  -2
   2   3  17 73.0728 3.96891   1
 -12   3  17 18.3544 2.61292  -2
   3   3  17 18.3544 2.61292   1
 -13   3  17 29.2821 2.90923  -2
   4   3  17 29.2821 2.90923   1
 -14   3  17 -1.0923 2.44758  -2
   5   3  17 -1.0923 2.44758   1
 -15   3  17 8.65951 2.72209  -2
   6   3  17 8.65951 2.72209   1
 -16   3  17 5.88595 3.07232  -2
   7   3  17 5.88595 3.07232   1
 -17   3  17 3.30067 2.86725  -2
   8   3  17 3.30067 2.86725   1
   6   4  17 59.1077 3.99949  -2
 -15   4  17 59.1077 3.99949   1
   5   4  17 15.2008 2.65444  -2
 -14   4  17 15.2008 2.65444   1
   4   4  17 46.6256 3.71248  -2
 -13   4  17 46.6256 3.71248   1
   3   4  17 12.9392 2.63068  -2
 -12   4  17 12.9392 2.63068   1
   2   4  17 35.8343 2.91475  -2
 -11   4  17 35.8343 2.91475   1
   1   4  17 25.7132 2.66699  -2
 -10   4  17 25.7132 2.66699   1
   0   4  17 10.7476 2.27671  -2
  -9   4  17 10.7476 2.27671   1
  -1   4  17 4.94673 2.08487  -2
  -8   4  17 4.94673 2.08487   1
  -2   4  17 6.74692 2.12509  -2
  -7   4  17 6.74692 2.12509   1
  -3   4  17 8.45327 2.16733  -2
  -6   4  17 8.45327 2.16733   1
  -4   4  17 48.1321 3.22163  -2
  -5   4  17 48.1321 3.22163   1
  -5   4  17 21.2145 2.31878  -2
  -4   4  17 21.2145 2.31878   1
  -6   4  17 17.9064 2.25907  -2
  -3   4  17 17.9064 2.25907   1
  -7   4  17 21.8021 2.25683  -2
  -2   4  17 21.8021 2.25683   1
  -8   4  17 2.36104 1.99774  -2
  -1   4  17 2.36104 1.99774   1
  -9   4  17 12.7915 2.10193  -2
   0   4  17 12.7915 2.10193   1
 -10   4  17 30.7516 2.98167  -2
   1   4  17 30.7516 2.98167   1
 -11   4  17 71.8080 4.34105  -2
   2   4  17 71.8080 4.34105   1
 -12   4  17 28.7564 3.04715  -2
   3   4  17 28.7564 3.04715   1
 -13   4  17 40.0251 3.46379  -2
   4   4  17 40.0251 3.46379   1
 -14   4  17 16.2690 3.28491  -2
   5   4  17 16.2690 3.28491   1
 -15   4  17 21.8685 3.59156  -2
   6   4  17 21.8685 3.59156   1
   2   5  17 38.3108 3.65243  -2
 -11   5  17 38.3108 3.65243   1
   1   5  17 7.97037 2.53081  -2
 -10   5  17 7.97037 2.53081   1
   0   5  17 8.64492 2.60604  -2
  -9   5  17 8.64492 2.60604   1
  -1   5  17 65.3451 4.18127  -2
  -8   5  17 65.3451 4.18127   1
  -2   5  17 55.6845 3.78919  -2
  -7   5  17 55.6845 3.78919   1
  -3   5  17 5.70779 2.36451  -2
  -6   5  17 5.70779 2.36451   1
  -4   5  17 3.14254 2.29753  -2
  -5   5  17 3.14254 2.29753   1
  -5   5  17 -2.1284 2.25215  -2
  -4   5  17 -2.1284 2.25215   1
  -6   5  17 9.78844 2.29696  -2
  -3   5  17 9.78844 2.29696   1
  -7   5  17 86.2414 4.45511  -2
  -2   5  17 86.2414 4.45511   1
  -8   5  17 42.7765 3.30333  -2
  -1   5  17 42.7765 3.30333   1
  -9   5  17 13.8940 2.74476  -2
   0   5  17 13.8940 2.74476   1
 -10   5  17 6.56903 2.94078  -2
   1   5  17 6.56903 2.94078   1
 -11   5  17 95.0768 6.04728  -2
   2   5  17 95.0768 6.04728   1
 -19   0  18 4.03772 2.72378   1
   9   0  18 95.8403 15.9944  -2
 -18   0  18 95.8403 15.9944   1
   8   0  18 2.09571 9.93592  -2
 -17   0  18 2.09571 9.93592   1
   7   0  18 15.6145 9.73598  -2
 -16   0  18 15.6145 9.73598   1
   6   0  18 28.8551 9.87536  -2
 -15   0  18 28.8551 9.87536   1
   5   0  18 84.7190 13.2078  -2
 -14   0  18 84.7190 13.2078   1
   4   0  18 30.0957 8.96585  -2
 -13   0  18 30.0957 8.96585   1
   3   0  18 96.1245 13.8461  -2
 -12   0  18 96.1245 13.8461   1
   2   0  18 28.9674 8.20455  -2
 -11   0  18 28.9674 8.20455   1
   1   0  18 18.9047 4.33937  -2
 -10   0  18 18.9047 4.33937   1
   0   0  18 157.850 12.6138  -2
  -9   0  18 157.850 12.6138   1
  -1   0  18 39.8997 5.12246  -2
  -8   0  18 39.8997 5.12246   1
  -2   0  18 40.4650 4.99067  -2
  -7   0  18 40.4650 4.99067   1
  -3   0  18 54.0391 7.00872  -2
  -6   0  18 54.0391 7.00872   1
  -4   0  18 1.34300 2.66867  -2
  -5   0  18 1.34300 2.66867   1
  -5   0  18 3.53253 2.62335  -2
  -4   0  18 3.53253 2.62335   1
  -6   0  18 69.0615 5.37048  -2
  -3   0  18 69.0615 5.37048   1
  -7   0  18 45.6174 3.74693  -2
  -2   0  18 45.6174 3.74693   1
  -8   0  18 10.7556 2.66576  -2
  -1   0  18 10.7556 2.66576   1
  -9   0  18 326.799 21.0515  -2
   0   0  18 326.799 21.0515   1
 -10   0  18 54.0044 6.93599  -2
   1   0  18 54.0044 6.93599   1
 -11   0  18 68.9970 7.90077  -2
   2   0  18 68.9970 7.90077   1
 -12   0  18 174.406 15.0647  -2
   3   0  18 174.406 15.0647   1
 -13   0  18 69.8333 8.26515  -2
   4   0  18 69.8333 8.26515   1
 -14   0  18 183.381 15.9368  -2
   5   0  18 183.381 15.9368   1
 -15   0  18 22.2947 6.24302  -2
   6   0  18 22.2947 6.24302   1
 -16   0  18 22.3727 6.33305  -2
   7   0  18 22.3727 6.33305   1
 -17   0  18 15.8556 6.27532  -2
   8   0  18 15.8556 6.27532   1
 -18   0  18 42.3771 7.52420  -2
   9   0  18 42.3771 7.52420   1
 -19   1  18 3.52077 1.87763   1
   9   1  18 44.1693 8.54897  -2
 -18   1  18 44.1693 8.54897   1
   8   1  18 15.9664 7.38090  -2
 -17   1  18 15.9664 7.38090   1
   7   1  18 10.6749 6.75845  -2
 -16   1  18 10.6749 6.75845   1
   6   1  18 95.7648 10.5130  -2
 -15   1  18 95.7648 10.5130   1
   5   1  18 97.8936 10.2038  -2
 -14   1  18 97.8936 10.2038   1
   4   1  18 6.74417 5.48775  -2
 -13   1  18 6.74417 5.48775   1
   3   1  18 50.7821 6.94053  -2
 -12   1  18 50.7821 6.94053   1
   2   1  18 86.6248 8.97888  -2
 -11   1  18 86.6248 8.97888   1
   1   1  18 42.7151 4.61198  -2
 -10   1  18 42.7151 4.61198   1
   0   1  18 77.2336 6.22829  -2
  -9   1  18 77.2336 6.22829   1
  -1   1  18 79.8352 5.18037  -2
  -8   1  18 79.8352 5.18037   1
  -2   1  18 33.3964 2.56828  -2
  -7   1  18 33.3964 2.56828   1
  -3   1  18 25.3587 2.02064  -2
  -6   1  18 25.3587 2.02064   1
  -4   1  18 105.135 5.17371  -2
  -5   1  18 105.135 5.17371   1
  -5   1  18 57.3578 4.46856  -2
  -4   1  18 57.3578 4.46856   1
  -6   1  18 14.3519 2.00874  -2
  -3   1  18 14.3519 2.00874   1
  -7   1  18 18.9593 2.42801  -2
  -2   1  18 18.9593 2.42801   1
  -8   1  18 93.2616 5.16168  -2
  -1   1  18 93.2616 5.16168   1
  -9   1  18 98.8361 5.29989  -2
   0   1  18 98.8361 5.29989   1
 -10   1  18 25.3510 3.43243  -2
   1   1  18 25.3510 3.43243   1
 -11   1  18 80.5324 5.64931  -2
   2   1  18 80.5324 5.64931   1
 -12   1  18 84.4341 7.25186  -2
   3   1  18 84.4341 7.25186   1
 -13   1  18 11.0504 3.41574  -2
   4   1  18 11.0504 3.41574   1
 -14   1  18 63.6951 4.82285  -2
   5   1  18 63.6951 4.82285   1
 -15   1  18 71.0252 5.23497  -2
   6   1  18 71.0252 5.23497   1
 -16   1  18 9.99882 3.47809  -2
   7   1  18 9.99882 3.47809   1
 -17   1  18 6.10053 4.21372  -2
   8   1  18 6.10053 4.21372   1
 -18   1  18 23.9668 5.53950  -2
   9   1  18 23.9668 5.53950   1
 -18   2  18 2.81297 1.70137   1
   8   2  18 2.36363 6.86053  -2
 -17   2  18 2.36363 6.86053   1
   7   2  18 11.0889 6.58145  -2
 -16   2  18 11.0889 6.58145   1
   6   2  18 2.81496 4.58105  -2
 -15   2  18 2.81496 4.58105   1
   5   2  18 18.7735 4.65164  -2
 -14   2  18 18.7735 4.65164   1
   4   2  18 51.0070 7.21892  -2
 -13   2  18 51.0070 7.21892   1
   3   2  18 62.7132 6.00142  -2
 -12   2  18 62.7132 6.00142   1
   2   2  18 25.0487 4.32163  -2
 -11   2  18 25.0487 4.32163   1
   1   2  18 215.300 14.1653  -2
 -10   2  18 215.300 14.1653   1
   0   2  18 232.192 15.2423  -2
  -9   2  18 232.192 15.2423   1
  -1   2  18 15.7253 3.98106  -2
  -8   2  18 15.7253 3.98106   1
  -2   2  18 67.8161 5.10697  -2
  -7   2  18 67.8161 5.10697   1
  -3   2  18 34.4322 3.77555  -2
  -6   2  18 34.4322 3.77555   1
  -4   2  18 11.9930 3.18887  -2
  -5   2  18 11.9930 3.18887   1
  -5   2  18 5.65573 2.71049  -2
  -4   2  18 5.65573 2.71049   1
  -6   2  18 41.8627 3.58857  -2
  -3   2  18 41.8627 3.58857   1
  -7   2  18 73.9099 4.46149  -2
  -2   2  18 73.9099 4.46149   1
  -8   2  18 15.2353 3.06030  -2
  -1   2  18 15.2353 3.06030   1
  -9   2  18 175.805 9.30146  -2
   0   2  18 175.805 9.30146   1
 -10   2  18 90.7323 5.59699  -2
   1   2  18 90.7323 5.59699   1
 -11   2  18 20.6182 3.71481  -2
   2   2  18 20.6182 3.71481   1
 -12   2  18 42.8655 4.50685  -2
   3   2  18 42.8655 4.50685   1
 -13   2  18 69.8600 5.57199  -2
   4   2  18 69.8600 5.57199   1
 -14   2  18 23.7111 4.11846  -2
   5   2  18 23.7111 4.11846   1
 -15   2  18 2.91764 3.52050  -2
   6   2  18 2.91764 3.52050   1
 -16   2  18 6.23582 3.60259  -2
   7   2  18 6.23582 3.60259   1
 -17   2  18 4.86702 3.65197  -2
   8   2  18 4.86702 3.65197   1
   7   3  18 1.79263 5.92425  -2
 -16   3  18 1.79263 5.92425   1
   6   3  18 23.4432 6.36310  -2
 -15   3  18 23.4432 6.36310   1
   5   3  18 1.64128 5.53518  -2
 -14   3  18 1.64128 5.53518   1
   4   3  18 39.4991 6.43380  -2
 -13   3  18 39.4991 6.43380   1
   3   3  18 47.1751 6.78603  -2
 -12   3  18 47.1751 6.78603   1
   2   3  18 174.841 14.5825  -2
 -11   3  18 174.841 14.5825   1
   1   3  18 28.0026 5.41035  -2
 -10   3  18 28.0026 5.41035   1
   0   3  18 147.936 12.7252  -2
  -9   3  18 147.936 12.7252   1
  -1   3  18 8.95390 6.43388  -2
  -8   3  18 8.95390 6.43388   1
  -2   3  18 18.4479 4.91964  -2
  -7   3  18 18.4479 4.91964   1
  -3   3  18 13.4177 3.40021  -2
  -6   3  18 13.4177 3.40021   1
  -4   3  18 23.8836 3.59874  -2
  -5   3  18 23.8836 3.59874   1
  -5   3  18 43.1214 3.79960  -2
  -4   3  18 43.1214 3.79960   1
  -6   3  18 32.1758 3.92208  -2
  -3   3  18 32.1758 3.92208   1
  -7   3  18 6.04989 3.51341  -2
  -2   3  18 6.04989 3.51341   1
  -8   3  18 7.75235 3.21838  -2
  -1   3  18 7.75235 3.21838   1
  -9   3  18 65.0176 4.87713  -2
   0   3  18 65.0176 4.87713   1
 -10   3  18 47.1608 4.84967  -2
   1   3  18 47.1608 4.84967   1
 -11   3  18 87.3285 6.49327  -2
   2   3  18 87.3285 6.49327   1
 -12   3  18 18.9798 4.19730  -2
   3   3  18 18.9798 4.19730   1
 -13   3  18 20.1338 4.32315  -2
   4   3  18 20.1338 4.32315   1
 -14   3  18 3.13083 3.98872  -2
   5   3  18 3.13083 3.98872   1
 -15   3  18 21.1624 3.99663  -2
   6   3  18 21.1624 3.99663   1
 -16   3  18 2.97224 3.84565  -2
   7   3  18 2.97224 3.84565   1
 -14   4  18 29.7467 2.53511   1
   4   4  18 21.9917 6.30760  -2
 -13   4  18 21.9917 6.30760   1
   3   4  18 10.9788 5.63196  -2
 -12   4  18 10.9788 5.63196   1
   2   4  18 20.8739 5.84404  -2
 -11   4  18 20.8739 5.84404   1
   1   4  18 85.8490 9.14257  -2
 -10   4  18 85.8490 9.14257   1
   0   4  18 16.5562 5.56584  -2
  -9   4  18 16.5562 5.56584   1
  -1   4  18 7.35402 5.21383  -2
  -8   4  18 7.35402 5.21383   1
  -2   4  18 29.0818 5.87403  -2
  -7   4  18 29.0818 5.87403   1
  -3   4  18 7.23177 8.12102  -2
  -6   4  18 7.23177 8.12102   1
  -4   4  18 10.0120 7.63546  -2
  -5   4  18 10.0120 7.63546   1
  -5   4  18 9.57790 3.29345  -2
  -4   4  18 9.57790 3.29345   1
  -6   4  18 2.84297 2.87137  -2
  -3   4  18 2.84297 2.87137   1
  -7   4  18 18.2226 3.25117  -2
  -2   4  18 18.2226 3.25117   1
  -8   4  18 -2.0537 2.88505  -2
  -1   4  18 -2.0537 2.88505   1
  -9   4  18 16.3531 3.18831  -2
   0   4  18 16.3531 3.18831   1
 -10   4  18 26.5177 4.07124  -2
   1   4  18 26.5177 4.07124   1
 -11   4  18 12.7757 4.00089  -2
   2   4  18 12.7757 4.00089   1
 -12   4  18 21.0608 4.27081  -2
   3   4  18 21.0608 4.27081   1
 -13   4  18 19.9339 5.67079  -2
   4   4  18 19.9339 5.67079   1
  -9   5  18 16.9544 3.30453   1
  -1   5  18 15.1128 9.33484  -2
  -8   5  18 15.1128 9.33484   1
  -2   5  18 -2.4420 8.63601  -2
  -7   5  18 -2.4420 8.63601   1
  -3   5  18 25.8573 4.31445  -2
  -6   5  18 25.8573 4.31445   1
  -4   5  18 2.10327 5.64689  -2
  -5   5  18 2.10327 5.64689   1
  -5   5  18 2.24802 5.58639  -2
  -4   5  18 2.24802 5.58639   1
  -6   5  18 19.8258 4.15842  -2
  -3   5  18 19.8258 4.15842   1
  -7   5  18 5.32609 4.15088  -2
  -2   5  18 5.32609 4.15088   1
  -8   5  18 8.59061 4.52386  -2
  -1   5  18 8.59061 4.52386   1
   8   0  19 3.20920 3.64902  -2
 -18   0  19 3.20920 3.64902   1
   7   0  19 -4.5436 3.24507  -2
 -17   0  19 -4.5436 3.24507   1
   6   0  19 4.01378 3.12769  -2
 -16   0  19 4.01378 3.12769   1
   5   0  19 -1.7942 3.01617  -2
 -15   0  19 -1.7942 3.01617   1
   4   0  19 -2.1199 2.93664  -2
 -14   0  19 -2.1199 2.93664   1
   3   0  19 0.32677 2.75362  -2
 -13   0  19 0.32677 2.75362   1
   2   0  19 -1.1345 2.49913  -2
 -12   0  19 -1.1345 2.49913   1
   1   0  19 -4.5096 2.35265  -2
 -11   0  19 -4.5096 2.35265   1
   0   0  19 3.39305 2.46996  -2
 -10   0  19 3.39305 2.46996   1
  -1   0  19 3.42787 2.31855  -2
  -9   0  19 3.42787 2.31855   1
  -2   0  19 1.05821 2.24149  -2
  -8   0  19 1.05821 2.24149   1
  -3   0  19 -0.3574 2.19539  -2
  -7   0  19 -0.3574 2.19539   1
  -4   0  19 8.21196 2.36026  -2
  -6   0  19 8.21196 2.36026   1
  -5   0  19 -1.2615 1.89325  -2
  -5   0  19 -1.2615 1.89325   1
  -6   0  19 -1.0622 1.90808  -2
  -4   0  19 -1.0622 1.90808   1
  -7   0  19 18.3857 2.16216  -2
  -3   0  19 18.3857 2.16216   1
  -8   0  19 -5.2792 2.05218  -2
  -2   0  19 -5.2792 2.05218   1
  -9   0  19 1.02980 2.05361  -2
  -1   0  19 1.02980 2.05361   1
 -10   0  19 18.9750 2.91655  -2
   0   0  19 18.9750 2.91655   1
 -11   0  19 -1.5595 2.51849  -2
   1   0  19 -1.5595 2.51849   1
 -12   0  19 -3.2669 2.66905  -2
   2   0  19 -3.2669 2.66905   1
 -13   0  19 -1.1447 2.71140  -2
   3   0  19 -1.1447 2.71140   1
 -14   0  19 0.81668 2.83342  -2
   4   0  19 0.81668 2.83342   1
 -15   0  19 -0.5256 2.85297  -2
   5   0  19 -0.5256 2.85297   1
 -16   0  19 0.11112 3.07731  -2
   6   0  19 0.11112 3.07731   1
 -17   0  19 2.38459 3.28743  -2
   7   0  19 2.38459 3.28743   1
 -18   0  19 4.10182 3.48504  -2
   8   0  19 4.10182 3.48504   1
   8   1  19 22.8865 2.93505  -2
 -18   1  19 22.8865 2.93505   1
   7   1  19 5.73750 2.48453  -2
 -17   1  19 5.73750 2.48453   1
   6   1  19 66.8703 4.15910  -2
 -16   1  19 66.8703 4.15910   1
   5   1  19 26.4684 2.70042  -2
 -15   1  19 26.4684 2.70042   1
   4   1  19 1.40413 2.05865  -2
 -14   1  19 1.40413 2.05865   1
   3   1  19 99.3383 5.15219  -2
 -13   1  19 99.3383 5.15219   1
   2   1  19 25.7854 2.38265  -2
 -12   1  19 25.7854 2.38265   1
   1   1  19 11.5888 1.92300  -2
 -11   1  19 11.5888 1.92300   1
   0   1  19 21.9304 2.09543  -2
 -10   1  19 21.9304 2.09543   1
  -1   1  19 3.06055 1.66160  -2
  -9   1  19 3.06055 1.66160   1
  -2   1  19 32.0951 2.31160  -2
  -8   1  19 32.0951 2.31160   1
  -3   1  19 43.6485 2.47041  -2
  -7   1  19 43.6485 2.47041   1
  -4   1  19 7.46613 1.30107  -2
  -6   1  19 7.46613 1.30107   1
  -5   1  19 0.12744 1.15752  -2
  -5   1  19 0.12744 1.15752   1
  -6   1  19 10.3155 1.24177  -2
  -4   1  19 10.3155 1.24177   1
  -7   1  19 93.5773 3.36606  -2
  -3   1  19 93.5773 3.36606   1
  -8   1  19 9.90485 1.55714  -2
  -2   1  19 9.90485 1.55714   1
  -9   1  19 -2.7045 1.49242  -2
  -1   1  19 -2.7045 1.49242   1
 -10   1  19 58.3455 3.21653  -2
   0   1  19 58.3455 3.21653   1
 -11   1  19 9.20329 1.89734  -2
   1   1  19 9.20329 1.89734   1
 -12   1  19 38.0893 2.79146  -2
   2   1  19 38.0893 2.79146   1
 -13   1  19 51.9609 3.44897  -2
   3   1  19 51.9609 3.44897   1
 -14   1  19 3.42300 2.06171  -2
   4   1  19 3.42300 2.06171   1
 -15   1  19 5.52450 2.23802  -2
   5   1  19 5.52450 2.23802   1
 -16   1  19 29.0530 2.87898  -2
   6   1  19 29.0530 2.87898   1
 -17   1  19 3.86511 2.39680  -2
   7   1  19 3.86511 2.39680   1
 -18   1  19 0.81313 2.53619  -2
   8   1  19 0.81313 2.53619   1
   7   2  19 31.1927 3.14565  -2
 -17   2  19 31.1927 3.14565   1
   6   2  19 5.98338 2.40106  -2
 -16   2  19 5.98338 2.40106   1
   5   2  19 5.77063 2.33484  -2
 -15   2  19 5.77063 2.33484   1
   4   2  19 38.9892 2.98942  -2
 -14   2  19 38.9892 2.98942   1
   3   2  19 55.6774 3.53633  -2
 -13   2  19 55.6774 3.53633   1
   2   2  19 85.3449 4.57477  -2
 -12   2  19 85.3449 4.57477   1
   1   2  19 132.760 6.37258  -2
 -11   2  19 132.760 6.37258   1
   0   2  19 67.1762 3.49543  -2
 -10   2  19 67.1762 3.49543   1
  -1   2  19 34.1429 2.36192  -2
  -9   2  19 34.1429 2.36192   1
  -2   2  19 40.1336 2.28757  -2
  -8   2  19 40.1336 2.28757   1
  -3   2  19 154.213 6.22429  -2
  -7   2  19 154.213 6.22429   1
  -4   2  19 26.7895 2.08663  -2
  -6   2  19 26.7895 2.08663   1
  -5   2  19 57.6670 2.78877  -2
  -5   2  19 57.6670 2.78877   1
  -6   2  19 74.8275 3.30054  -2
  -4   2  19 74.8275 3.30054   1
  -7   2  19 99.6796 4.39347  -2
  -3   2  19 99.6796 4.39347   1
  -8   2  19 105.839 4.24856  -2
  -2   2  19 105.839 4.24856   1
  -9   2  19 21.9439 2.06999  -2
  -1   2  19 21.9439 2.06999   1
 -10   2  19 27.6342 2.31725  -2
   0   2  19 27.6342 2.31725   1
 -11   2  19 68.7152 3.94104  -2
   1   2  19 68.7152 3.94104   1
 -12   2  19 48.2338 3.38698  -2
   2   2  19 48.2338 3.38698   1
 -13   2  19 44.5380 3.29025  -2
   3   2  19 44.5380 3.29025   1
 -14   2  19 97.8917 5.15193  -2
   4   2  19 97.8917 5.15193   1
 -15   2  19 4.68920 2.36601  -2
   5   2  19 4.68920 2.36601   1
 -16   2  19 7.87690 2.52506  -2
   6   2  19 7.87690 2.52506   1
 -17   2  19 13.5928 2.78915  -2
   7   2  19 13.5928 2.78915   1
   5   3  19 5.28432 2.85914  -2
 -15   3  19 5.28432 2.85914   1
   4   3  19 28.3327 3.32518  -2
 -14   3  19 28.3327 3.32518   1
   3   3  19 25.7773 3.12196  -2
 -13   3  19 25.7773 3.12196   1
   2   3  19 117.947 6.57123  -2
 -12   3  19 117.947 6.57123   1
   1   3  19 67.3865 4.46649  -2
 -11   3  19 67.3865 4.46649   1
   0   3  19 9.66059 2.58071  -2
 -10   3  19 9.66059 2.58071   1
  -1   3  19 8.30235 2.56839  -2
  -9   3  19 8.30235 2.56839   1
  -2   3  19 1.39447 2.09036  -2
  -8   3  19 1.39447 2.09036   1
  -3   3  19 2.37498 1.25881  -2
  -7   3  19 2.37498 1.25881   1
  -4   3  19 6.03698 1.70955  -2
  -6   3  19 6.03698 1.70955   1
  -5   3  19 2.42389 1.73920  -2
  -5   3  19 2.42389 1.73920   1
  -6   3  19 9.06030 1.85156  -2
  -4   3  19 9.06030 1.85156   1
  -7   3  19 10.2005 2.17506  -2
  -3   3  19 10.2005 2.17506   1
  -8   3  19 2.55604 1.13102  -2
  -2   3  19 2.55604 1.13102   1
  -9   3  19 16.1883 1.86376  -2
  -1   3  19 16.1883 1.86376   1
 -10   3  19 6.06934 1.80333  -2
   0   3  19 6.06934 1.80333   1
 -11   3  19 42.3399 3.24345  -2
   1   3  19 42.3399 3.24345   1
 -12   3  19 49.1608 3.57501  -2
   2   3  19 49.1608 3.57501   1
 -13   3  19 31.9632 3.01154  -2
   3   3  19 31.9632 3.01154   1
 -14   3  19 24.1676 2.88314  -2
   4   3  19 24.1676 2.88314   1
 -15   3  19 7.85326 2.72090  -2
   5   3  19 7.85326 2.72090   1
   2   4  19 12.6972 2.37149  -2
 -12   4  19 12.6972 2.37149   1
   1   4  19 5.76507 2.26903  -2
 -11   4  19 5.76507 2.26903   1
   0   4  19 7.87200 2.17800  -2
 -10   4  19 7.87200 2.17800   1
  -1   4  19 6.75435 1.91057  -2
  -9   4  19 6.75435 1.91057   1
  -2   4  19 7.96897 1.94621  -2
  -8   4  19 7.96897 1.94621   1
  -3   4  19 1.30939 1.76408  -2
  -7   4  19 1.30939 1.76408   1
  -4   4  19 40.1459 2.79063  -2
  -6   4  19 40.1459 2.79063   1
  -5   4  19 10.7314 1.79038  -2
  -5   4  19 10.7314 1.79038   1
  -6   4  19 15.3258 2.08116  -2
  -4   4  19 15.3258 2.08116   1
  -7   4  19 -3.6141 1.81555  -2
  -3   4  19 -3.6141 1.81555   1
  -8   4  19 17.9873 2.19383  -2
  -2   4  19 17.9873 2.19383   1
  -9   4  19 3.79103 2.07136  -2
  -1   4  19 3.79103 2.07136   1
 -10   4  19 7.58216 2.20068  -2
   0   4  19 7.58216 2.20068   1
 -11   4  19 2.48318 2.09322  -2
   1   4  19 2.48318 2.09322   1
 -12   4  19 7.16794 2.26469  -2
   2   4  19 7.16794 2.26469   1
 -17   0  20 25.9646 3.63061   1
 -16   0  20 49.0543 4.76568   1
 -15   0  20 32.8573 3.79731   1
   4   0  20 4.33798 8.54811  -2
 -14   0  20 4.33798 8.54811   1
   3   0  20 75.2433 12.3751  -2
 -13   0  20 75.2433 12.3751   1
   2   0  20 12.0332 7.83291  -2
 -12   0  20 12.0332 7.83291   1
   1   0  20 59.2703 6.47561  -2
 -11   0  20 59.2703 6.47561   1
   0   0  20 61.5407 6.48540  -2
 -10   0  20 61.5407 6.48540   1
  -1   0  20 136.870 11.1260  -2
  -9   0  20 136.870 11.1260   1
  -2   0  20 53.4418 5.96299  -2
  -8   0  20 53.4418 5.96299   1
  -3   0  20 55.2307 7.42349  -2
  -7   0  20 55.2307 7.42349   1
  -4   0  20 23.1789 4.92525  -2
  -6   0  20 23.1789 4.92525   1
  -5   0  20 8.17503 2.00911   1
  -4   0  20 1.52105 1.54040   1
  -7   0  20 121.604 10.1518  -2
  -3   0  20 121.604 10.1518   1
  -8   0  20 115.374 15.2934  -2
  -2   0  20 115.374 15.2934   1
  -9   0  20 257.624 20.8086  -2
  -1   0  20 257.624 20.8086   1
   0   0  20 116.556 9.37984   1
   1   0  20 67.5257 6.20648   1
   2   0  20 16.7622 2.76679   1
   3   0  20 111.943 9.21882   1
   4   0  20 11.8004 2.68316   1
   5   0  20 8.84204 2.72290   1
 -16   0  20 25.0046 9.86681  -2
   6   0  20 25.0046 9.86681   1
 -17   0  20 25.9562 9.83717  -2
   7   0  20 25.9562 9.83717   1
 -17   1  20 0.13576 1.72316   1
   6   1  20 -0.1985 9.65259  -2
 -16   1  20 -0.1985 9.65259   1
   5   1  20 45.0541 11.0595  -2
 -15   1  20 45.0541 11.0595   1
   4   1  20 -1.1197 5.94749  -2
 -14   1  20 -1.1197 5.94749   1
   3   1  20 15.9430 5.94229  -2
 -13   1  20 15.9430 5.94229   1
   2   1  20 55.2112 10.8374  -2
 -12   1  20 55.2112 10.8374   1
   1   1  20 14.7983 8.75060  -2
 -11   1  20 14.7983 8.75060   1
   0   1  20 6.84533 5.53380  -2
 -10   1  20 6.84533 5.53380   1
  -1   1  20 26.3695 6.29867  -2
  -9   1  20 26.3695 6.29867   1
  -2   1  20 3.33991 2.70976  -2
  -8   1  20 3.33991 2.70976   1
  -3   1  20 41.7074 3.79058  -2
  -7   1  20 41.7074 3.79058   1
  -4   1  20 13.6014 2.72332  -2
  -6   1  20 13.6014 2.72332   1
  -5   1  20 8.58186 5.20202  -2
  -5   1  20 8.58186 5.20202   1
  -6   1  20 14.1818 8.86390  -2
  -4   1  20 14.1818 8.86390   1
  -7   1  20 84.0412 7.83834  -2
  -3   1  20 84.0412 7.83834   1
  -8   1  20 -3.3228 8.19596  -2
  -2   1  20 -3.3228 8.19596   1
  -9   1  20 40.1615 6.94869  -2
  -1   1  20 40.1615 6.94869   1
 -10   1  20 20.3853 4.47314  -2
   0   1  20 20.3853 4.47314   1
 -11   1  20 25.3829 4.93525  -2
   1   1  20 25.3829 4.93525   1
 -12   1  20 109.865 10.7111  -2
   2   1  20 109.865 10.7111   1
 -13   1  20 42.2470 9.83309  -2
   3   1  20 42.2470 9.83309   1
 -14   1  20 2.42894 8.56540  -2
   4   1  20 2.42894 8.56540   1
   5   1  20 -1.8379 1.70604   1
 -16   1  20 -1.0848 5.11072  -2
   6   1  20 -1.0848 5.11072   1
 -16   2  20 9.72641 1.82065   1
   5   2  20 -6.1633 6.10800  -2
 -15   2  20 -6.1633 6.10800   1
   4   2  20 4.60153 6.20317  -2
 -14   2  20 4.60153 6.20317   1
   3   2  20 1.65296 5.87308  -2
 -13   2  20 1.65296 5.87308   1
   2   2  20 -0.1392 5.51562  -2
 -12   2  20 -0.1392 5.51562   1
   1   2  20 53.0639 10.9247  -2
 -11   2  20 53.0639 10.9247   1
   0   2  20 11.0598 5.18060  -2
 -10   2  20 11.0598 5.18060   1
  -1   2  20 28.1836 5.36848  -2
  -9   2  20 28.1836 5.36848   1
  -2   2  20 15.5367 5.04332  -2
  -8   2  20 15.5367 5.04332   1
  -3   2  20 28.2441 8.33891  -2
  -7   2  20 28.2441 8.33891   1
  -4   2  20 34.1212 5.97710  -2
  -6   2  20 34.1212 5.97710   1
  -5   2  20 8.84576 3.88146  -2
  -5   2  20 8.84576 3.88146   1
  -6   2  20 14.6800 4.01675  -2
  -4   2  20 14.6800 4.01675   1
  -7   2  20 24.4583 4.36630  -2
  -3   2  20 24.4583 4.36630   1
  -8   2  20 24.9092 5.32884  -2
  -2   2  20 24.9092 5.32884   1
  -9   2  20 32.3329 5.48964  -2
  -1   2  20 32.3329 5.48964   1
 -10   2  20 1.40380 5.65006  -2
   0   2  20 1.40380 5.65006   1
 -11   2  20 52.5429 8.83832  -2
   1   2  20 52.5429 8.83832   1
 -12   2  20 7.26701 6.02480  -2
   2   2  20 7.26701 6.02480   1
 -13   2  20 -0.4044 5.96128  -2
   3   2  20 -0.4044 5.96128   1
 -14   2  20 13.5779 6.57964  -2
   4   2  20 13.5779 6.57964   1
 -15   2  20 2.53857 5.07518  -2
   5   2  20 2.53857 5.07518   1
 -14   3  20 4.30230 1.72041   1
   3   3  20 7.96680 5.51831  -2
 -13   3  20 7.96680 5.51831   1
   2   3  20 101.110 14.7745  -2
 -12   3  20 101.110 14.7745   1
   1   3  20 63.9308 7.73213  -2
 -11   3  20 63.9308 7.73213   1
   0   3  20 9.72686 5.32627  -2
 -10   3  20 9.72686 5.32627   1
  -1   3  20 -2.2521 7.26160  -2
  -9   3  20 -2.2521 7.26160   1
  -2   3  20 58.4930 10.1338  -2
  -8   3  20 58.4930 10.1338   1
  -3   3  20 17.2578 7.54786  -2
  -7   3  20 17.2578 7.54786   1
  -4   3  20 55.6282 9.68522  -2
  -6   3  20 55.6282 9.68522   1
  -5   3  20 22.9941 2.37251   1
  -6   3  20 29.4736 8.24039  -2
  -4   3  20 29.4736 8.24039   1
  -7   3  20 9.41646 5.21501  -2
  -3   3  20 9.41646 5.21501   1
  -8   3  20 70.4960 7.88730  -2
  -2   3  20 70.4960 7.88730   1
  -9   3  20 9.52463 7.39443  -2
  -1   3  20 9.52463 7.39443   1
 -10   3  20 9.23645 7.76312  -2
   0   3  20 9.23645 7.76312   1
 -11   3  20 41.9239 9.73486  -2
   1   3  20 41.9239 9.73486   1
 -12   3  20 81.2162 13.0100  -2
   2   3  20 81.2162 13.0100   1
 -13   3  20 13.6575 8.56035  -2
   3   3  20 13.6575 8.56035   1
   4   3  20 22.4318 3.65643   1
   0   4  20 0.79324 5.55288  -2
 -10   4  20 0.79324 5.55288   1
  -1   4  20 -5.5876 8.41606  -2
  -9   4  20 -5.5876 8.41606   1
  -8   4  20 10.9151 1.82530   1
  -7   4  20 0.06155 1.29304   1
  -4   4  20 54.8567 10.6784  -2
  -6   4  20 54.8567 10.6784   1
  -5   4  20 15.3857 3.02526   1
  -4   4  20 19.7988 1.93597   1
  -3   4  20 1.05387 1.39683   1
  -2   4  20 3.88496 1.68120   1
  -1   4  20 6.75756 1.91107   1
   0   4  20 0.75887 1.90168   1
   5   0  21 -0.5227 2.78579  -2
 -16   0  21 -0.5227 2.78579   1
   4   0  21 -1.9474 2.64311  -2
 -15   0  21 -1.9474 2.64311   1
   3   0  21 3.84216 2.61481  -2
 -14   0  21 3.84216 2.61481   1
   2   0  21 -1.5095 2.42228  -2
 -13   0  21 -1.5095 2.42228   1
   1   0  21 -1.1016 2.29994  -2
 -12   0  21 -1.1016 2.29994   1
   0   0  21 3.67377 2.38541  -2
 -11   0  21 3.67377 2.38541   1
  -1   0  21 -2.2093 2.16194  -2
 -10   0  21 -2.2093 2.16194   1
  -2   0  21 0.03650 2.09794  -2
  -9   0  21 0.03650 2.09794   1
  -3   0  21 -1.3418 2.10512  -2
  -8   0  21 -1.3418 2.10512   1
  -4   0  21 26.9326 3.05871  -2
  -7   0  21 26.9326 3.05871   1
  -5   0  21 4.31225 2.11630  -2
  -6   0  21 4.31225 2.11630   1
  -6   0  21 1.83807 2.12544  -2
  -5   0  21 1.83807 2.12544   1
  -7   0  21 9.21668 2.56564  -2
  -4   0  21 9.21668 2.56564   1
  -8   0  21 -0.8718 2.07796  -2
  -3   0  21 -0.8718 2.07796   1
  -9   0  21 1.63627 2.07762  -2
  -2   0  21 1.63627 2.07762   1
 -10   0  21 6.41805 2.14495  -2
  -1   0  21 6.41805 2.14495   1
 -11   0  21 10.8837 2.32655  -2
   0   0  21 10.8837 2.32655   1
 -12   0  21 -0.0009 2.17439  -2
   1   0  21 -0.0009 2.17439   1
 -13   0  21 -0.0912 2.28449  -2
   2   0  21 -0.0912 2.28449   1
 -14   0  21 6.71322 2.78259  -2
   3   0  21 6.71322 2.78259   1
 -15   0  21 -1.1054 2.75426  -2
   4   0  21 -1.1054 2.75426   1
 -16   0  21 -3.7436 3.05599  -2
   5   0  21 -3.7436 3.05599   1
   5   1  21 3.93495 2.01880  -2
 -16   1  21 3.93495 2.01880   1
   4   1  21 5.32400 1.99579  -2
 -15   1  21 5.32400 1.99579   1
   3   1  21 -1.6547 1.76725  -2
 -14   1  21 -1.6547 1.76725   1
   2   1  21 58.6498 3.51899  -2
 -13   1  21 58.6498 3.51899   1
   1   1  21 18.3549 2.06962  -2
 -12   1  21 18.3549 2.06962   1
   0   1  21 8.99407 1.78568  -2
 -11   1  21 8.99407 1.78568   1
  -1   1  21 70.5167 3.86449  -2
 -10   1  21 70.5167 3.86449   1
  -2   1  21 25.6203 2.18493  -2
  -9   1  21 25.6203 2.18493   1
  -3   1  21 51.8364 3.08274  -2
  -8   1  21 51.8364 3.08274   1
  -4   1  21 0.27938 1.41196  -2
  -7   1  21 0.27938 1.41196   1
  -5   1  21 33.7672 2.18996  -2
  -6   1  21 33.7672 2.18996   1
  -6   1  21 37.6215 2.21035  -2
  -5   1  21 37.6215 2.21035   1
  -7   1  21 0.20375 1.35848  -2
  -4   1  21 0.20375 1.35848   1
  -8   1  21 81.3741 3.90388  -2
  -3   1  21 81.3741 3.90388   1
  -9   1  21 37.1855 2.26845  -2
  -2   1  21 37.1855 2.26845   1
 -10   1  21 79.4559 3.65882  -2
  -1   1  21 79.4559 3.65882   1
 -11   1  21 30.0544 2.14812  -2
   0   1  21 30.0544 2.14812   1
 -12   1  21 51.3729 2.84151  -2
   1   1  21 51.3729 2.84151   1
 -13   1  21 31.1063 2.38466  -2
   2   1  21 31.1063 2.38466   1
 -14   1  21 4.18348 1.86613  -2
   3   1  21 4.18348 1.86613   1
 -15   1  21 9.36200 2.26731  -2
   4   1  21 9.36200 2.26731   1
 -16   1  21 7.47200 2.31922  -2
   5   1  21 7.47200 2.31922   1
   4   2  21 12.8176 2.21983  -2
 -15   2  21 12.8176 2.21983   1
   3   2  21 55.5065 3.49436  -2
 -14   2  21 55.5065 3.49436   1
   2   2  21 67.0417 3.90392  -2
 -13   2  21 67.0417 3.90392   1
   1   2  21 56.8977 3.41935  -2
 -12   2  21 56.8977 3.41935   1
   0   2  21 16.7127 1.99221  -2
 -11   2  21 16.7127 1.99221   1
  -1   2  21 32.6475 2.49083  -2
 -10   2  21 32.6475 2.49083   1
  -2   2  21 2.75032 1.43184  -2
  -9   2  21 2.75032 1.43184   1
  -3   2  21 9.76937 2.17197  -2
  -8   2  21 9.76937 2.17197   1
  -4   2  21 13.4337 2.21526  -2
  -7   2  21 13.4337 2.21526   1
  -5   2  21 4.57472 1.65117  -2
  -6   2  21 4.57472 1.65117   1
  -6   2  21 0.88622 1.60524  -2
  -5   2  21 0.88622 1.60524   1
  -7   2  21 8.50727 1.94125  -2
  -4   2  21 8.50727 1.94125   1
  -8   2  21 18.6822 2.13267  -2
  -3   2  21 18.6822 2.13267   1
  -9   2  21 0.37303 1.27031  -2
  -2   2  21 0.37303 1.27031   1
 -10   2  21 29.8869 2.04795  -2
  -1   2  21 29.8869 2.04795   1
 -11   2  21 19.9176 1.78291  -2
   0   2  21 19.9176 1.78291   1
 -12   2  21 33.3356 2.34926  -2
   1   2  21 33.3356 2.34926   1
 -13   2  21 29.1985 2.52899  -2
   2   2  21 29.1985 2.52899   1
 -14   2  21 20.6895 2.41025  -2
   3   2  21 20.6895 2.41025   1
 -15   2  21 29.9792 2.88966  -2
   4   2  21 29.9792 2.88966   1
   1   3  21 12.0892 2.11477  -2
 -12   3  21 12.0892 2.11477   1
   0   3  21 5.92436 1.85511  -2
 -11   3  21 5.92436 1.85511   1
  -1   3  21 3.39683 1.69832  -2
 -10   3  21 3.39683 1.69832   1
  -2   3  21 12.3916 2.45581  -2
  -9   3  21 12.3916 2.45581   1
  -3   3  21 5.44581 2.18995  -2
  -8   3  21 5.44581 2.18995   1
  -4   3  21 2.95414 1.87589  -2
  -7   3  21 2.95414 1.87589   1
  -5   3  21 5.87234 1.90135  -2
  -6   3  21 5.87234 1.90135   1
  -6   3  21 5.37925 2.02042  -2
  -5   3  21 5.37925 2.02042   1
  -7   3  21 -0.9859 2.17310  -2
  -4   3  21 -0.9859 2.17310   1
  -8   3  21 13.9517 2.18367  -2
  -3   3  21 13.9517 2.18367   1
  -9   3  21 26.6329 2.49072  -2
  -2   3  21 26.6329 2.49072   1
 -10   3  21 10.1126 1.70671  -2
  -1   3  21 10.1126 1.70671   1
 -11   3  21 14.2125 1.98355  -2
   0   3  21 14.2125 1.98355   1
 -12   3  21 23.5491 2.18599  -2
   1   3  21 23.5491 2.18599   1
  -5   4  21 0.12287 3.89464  -2
  -6   4  21 0.12287 3.89464   1
  -6   4  21 -0.9995 6.53763  -2
  -5   4  21 -0.9995 6.53763   1
   3   0  22 43.1265 11.0222  -2
 -15   0  22 43.1265 11.0222   1
 -14   0  22 4.79908 2.74263   1
 -13   0  22 10.6427 2.88691   1
 -12   0  22 17.2727 3.17285   1
 -11   0  22 8.40092 2.64319   1
 -10   0  22 166.180 18.7211   1
  -9   0  22 64.1804 9.13712   1
  -8   0  22 11.6640 4.22984   1
  -7   0  22 26.9164 5.38816   1
  -5   0  22 19.0875 5.15842  -2
  -6   0  22 19.0875 5.15842   1
  -6   0  22 31.1385 6.02533  -2
  -5   0  22 31.1385 6.02533   1
  -4   0  22 3.52060 2.51505   1
  -3   0  22 192.356 20.2244   1
  -2   0  22 93.8609 8.00345   1
  -1   0  22 7.43581 2.14715   1
   0   0  22 57.5556 5.68711   1
   1   0  22 48.4520 5.21720   1
   2   0  22 0.41750 2.07775   1
   3   0  22 1.51197 2.32031   1
   2   1  22 1.29688 9.40811  -2
 -14   1  22 1.29688 9.40811   1
 -13   1  22 11.8957 2.16194   1
 -12   1  22 3.46544 1.77311   1
 -11   1  22 75.5249 5.74251   1
 -10   1  22 28.7653 2.75366   1
  -2   1  22 16.8516 5.86871  -2
  -9   1  22 16.8516 5.86871   1
  -8   1  22 11.8357 2.85219   1
  -7   1  22 1.09829 2.24794   1
  -5   1  22 7.10142 5.54198  -2
  -6   1  22 7.10142 5.54198   1
  -5   1  22 1.25367 1.41690   1
  -7   1  22 10.7650 5.79346  -2
  -4   1  22 10.7650 5.79346   1
  -8   1  22 15.0279 5.89707  -2
  -3   1  22 15.0279 5.89707   1
  -2   1  22 4.30361 1.48196   1
  -1   1  22 12.7283 1.81562   1
   0   1  22 18.2274 2.03816   1
   1   1  22 48.6849 3.56178   1
   2   1  22 9.84660 1.95393   1
   3   1  22 0.59002 1.70078   1
 -13   2  22 28.7018 2.43923   1
   1   2  22 -8.3988 8.56615  -2
 -12   2  22 -8.3988 8.56615   1
  -1   2  22 65.0213 12.3958  -2
 -11   2  22 65.0213 12.3958   1
  -2   2  22 18.4284 9.00313  -2
 -10   2  22 18.4284 9.00313   1
  -9   2  22 49.0006 3.97110   1
  -8   2  22 6.72073 2.45949   1
  -7   2  22 30.5213 3.47506   1
  -6   2  22 6.65133 2.30703   1
  -5   2  22 1.10078 1.94050   1
  -7   2  22 15.1507 7.02947  -2
  -4   2  22 15.1507 7.02947   1
  -8   2  22 19.4112 7.19021  -2
  -3   2  22 19.4112 7.19021   1
  -2   2  22 22.7662 2.47996   1
  -1   2  22 8.89637 1.92426   1
   0   2  22 1.57372 1.61764   1
   1   2  22 3.20500 2.09641   1
 -10   3  22 18.0647 2.17411   1
  -9   3  22 2.99523 2.52831   1
  -8   3  22 9.61613 2.74972   1
  -7   3  22 1.51569 2.37981   1
  -6   3  22 8.41587 2.26899   1
  -5   3  22 1.30675 2.11085   1
  -4   3  22 28.3250 4.37720   1
  -3   3  22 2.54340 2.41274   1
  -2   3  22 4.43935 2.16468   1
   1   0  23 -1.8028 2.73288  -2
 -13   0  23 -1.8028 2.73288   1
   0   0  23 2.12685 2.74533  -2
 -12   0  23 2.12685 2.74533   1
  -1   0  23 1.47938 2.64900  -2
 -11   0  23 1.47938 2.64900   1
  -2   0  23 0.11164 2.55921  -2
 -10   0  23 0.11164 2.55921   1
  -3   0  23 0.28181 2.46666  -2
  -9   0  23 0.28181 2.46666   1
  -4   0  23 -0.1952 2.47313  -2
  -8   0  23 -0.1952 2.47313   1
  -5   0  23 -3.2920 2.32914  -2
  -7   0  23 -3.2920 2.32914   1
  -6   0  23 0.00793 2.49675  -2
  -6   0  23 0.00793 2.49675   1
  -7   0  23 0.05874 2.44567  -2
  -5   0  23 0.05874 2.44567   1
  -8   0  23 0.38989 2.31152  -2
  -4   0  23 0.38989 2.31152   1
  -9   0  23 5.77049 2.45549  -2
  -3   0  23 5.77049 2.45549   1
 -10   0  23 -2.2906 2.41789  -2
  -2   0  23 -2.2906 2.41789   1
 -11   0  23 -0.3893 2.43797  -2
  -1   0  23 -0.3893 2.43797   1
 -12   0  23 8.04760 2.30439  -2
   0   0  23 8.04760 2.30439   1
 -13   0  23 1.19546 2.14517  -2
   1   0  23 1.19546 2.14517   1
   1   1  23 0.68859 3.56047  -2
 -13   1  23 0.68859 3.56047   1
   0   1  23 102.375 5.25839  -2
 -12   1  23 102.375 5.25839   1
  -1   1  23 87.4354 4.66281  -2
 -11   1  23 87.4354 4.66281   1
  -2   1  23 48.4190 3.08231  -2
 -10   1  23 48.4190 3.08231   1
  -3   1  23 1.93489 1.71671  -2
  -9   1  23 1.93489 1.71671   1
  -4   1  23 9.93479 1.75789  -2
  -8   1  23 9.93479 1.75789   1
  -5   1  23 12.8802 1.81051  -2
  -7   1  23 12.8802 1.81051   1
  -6   1  23 3.15628 1.64894  -2
  -6   1  23 3.15628 1.64894   1
  -7   1  23 43.3909 2.89273  -2
  -5   1  23 43.3909 2.89273   1
  -8   1  23 5.16202 1.60609  -2
  -4   1  23 5.16202 1.60609   1
  -9   1  23 5.23403 1.42233  -2
  -3   1  23 5.23403 1.42233   1
 -10   1  23 68.2903 3.53950  -2
  -2   1  23 68.2903 3.53950   1
 -11   1  23 51.7750 3.04789  -2
  -1   1  23 51.7750 3.04789   1
 -12   1  23 44.8192 2.78582  -2
   0   1  23 44.8192 2.78582   1
  -1   2  23 11.5966 3.18046  -2
 -11   2  23 11.5966 3.18046   1
  -2   2  23 5.25338 1.62161  -2
 -10   2  23 5.25338 1.62161   1
  -3   2  23 -0.9831 2.09312  -2
  -9   2  23 -0.9831 2.09312   1
  -4   2  23 3.74571 1.90763  -2
  -8   2  23 3.74571 1.90763   1
  -5   2  23 -0.4800 1.97139  -2
  -7   2  23 -0.4800 1.97139   1
  -6   2  23 11.1285 2.77516  -2
  -6   2  23 11.1285 2.77516   1
  -7   2  23 2.73791 2.28503  -2
  -5   2  23 2.73791 2.28503   1
  -8   2  23 2.26279 1.85378  -2
  -4   2  23 2.26279 1.85378   1
  -9   2  23 1.23226 1.84808  -2
  -3   2  23 1.23226 1.84808   1
 -10   2  23 9.17286 2.13327  -2
  -2   2  23 9.17286 2.13327   1
  -1   2  23 12.0636 5.20459   1
  -3   0  24 18.1589 8.76713  -2
 -10   0  24 18.1589 8.76713   1
  -9   0  24 10.7935 4.72430   1
  -8   0  24 8.75766 4.30531   1
  -6   0  24 -0.5487 5.37682  -2
  -7   0  24 -0.5487 5.37682   1
  -7   0  24 6.62357 5.09494  -2
  -6   0  24 6.62357 5.09494   1
  -5   0  24 -4.6328 2.39071   1
  -4   0  24 27.0106 4.35246   1
  -3   0  24 13.8015 3.36456   1
  -2   0  24 131.539 14.3278   1
  -4   1  24 12.0341 4.27056  -2
  -9   1  24 12.0341 4.27056   1
  -8   1  24 28.5111 2.69067   1
  -7   1  24 5.47840 2.03723   1
  -6   1  24 4.63161 1.88252   1
  -8   1  24 16.8824 6.56197  -2
  -5   1  24 16.8824 6.56197   1
  -9   1  24 21.1255 6.72811  -2
  -4   1  24 21.1255 6.72811   1
  -3   1  24 28.0382 3.06490   1
   0   0   0    0.00    0.00   0
;
_shelx_hkl_checksum                23736
_shelx_fab_file
;
    1    0    0    -82.59      0.00
    2    0    0     49.50      0.00
    3    0    0    -15.70      0.00
    4    0    0     -4.78      0.00
    5    0    0     10.25      0.00
    6    0    0     -7.50      0.00
    7    0    0      3.33      0.00
    8    0    0     -0.26      0.00
    9    0    0     -1.75      0.00
   10    0    0      2.73      0.00
   11    0    0     -2.57      0.00
   12    0    0      1.78      0.00
   13    0    0     -1.12      0.00
   14    0    0      0.63      0.00
   15    0    0      0.14      0.00
   16    0    0     -1.04      0.00
   17    0    0      1.14      0.00
   18    0    0      0.02      0.00
   19    0    0     -1.62      0.00
   20    0    0      2.37      0.00
   21    0    0     -1.89      0.00
    1    1    0     -0.70      0.00
    2    1    0      0.79      0.00
    3    1    0     -0.48      0.00
    4    1    0      0.52      0.00
    5    1    0     -1.30      0.00
    6    1    0      2.31      0.00
    7    1    0     -2.63      0.00
    8    1    0      1.92      0.00
    9    1    0     -0.70      0.00
   10    1    0     -0.24      0.00
   11    1    0      0.60      0.00
   12    1    0     -0.64      0.00
   13    1    0      0.68      0.00
   14    1    0     -0.73      0.00
   15    1    0      0.65      0.00
   16    1    0     -0.49      0.00
   17    1    0      0.42      0.00
   18    1    0     -0.48      0.00
   19    1    0      0.48      0.00
   20    1    0     -0.26      0.00
   21    1    0     -0.09      0.00
    0    2    0     -0.31      0.00
    1    2    0     -0.14      0.00
    2    2    0      1.06      0.00
    3    2    0     -1.65      0.00
    4    2    0      1.58      0.00
    5    2    0     -1.12      0.00
    6    2    0      0.63      0.00
    7    2    0     -0.08      0.00
    8    2    0     -0.71      0.00
    9    2    0      1.54      0.00
   10    2    0     -1.96      0.00
   11    2    0      1.74      0.00
   12    2    0     -1.12      0.00
   13    2    0      0.48      0.00
   14    2    0     -0.05      0.00
   15    2    0     -0.18      0.00
   16    2    0      0.22      0.00
   17    2    0     -0.08      0.00
   18    2    0     -0.17      0.00
   19    2    0      0.32      0.00
   20    2    0     -0.30      0.00
    1    3    0      1.07      0.00
    2    3    0     -1.58      0.00
    3    3    0      1.37      0.00
    4    3    0     -0.74      0.00
    5    3    0      0.16      0.00
    6    3    0      0.00      0.00
    7    3    0      0.28      0.00
    8    3    0     -0.73      0.00
    9    3    0      1.03      0.00
   10    3    0     -0.97      0.00
   11    3    0      0.60      0.00
   12    3    0     -0.15      0.00
   13    3    0     -0.15      0.00
   14    3    0      0.19      0.00
   15    3    0     -0.03      0.00
   16    3    0     -0.19      0.00
   17    3    0      0.33      0.00
   18    3    0     -0.37      0.00
   19    3    0      0.34      0.00
    0    4    0     -1.13      0.00
    1    4    0      1.15      0.00
    2    4    0     -1.00      0.00
    3    4    0      0.34      0.00
    4    4    0      0.63      0.00
    5    4    0     -1.25      0.00
    6    4    0      1.02      0.00
    7    4    0     -0.27      0.00
    8    4    0     -0.13      0.00
    9    4    0     -0.33      0.00
   10    4    0      1.27      0.00
   11    4    0     -1.85      0.00
   12    4    0      1.61      0.00
   13    4    0     -0.91      0.00
   14    4    0      0.38      0.00
   15    4    0     -0.29      0.00
   16    4    0      0.38      0.00
   17    4    0     -0.27      0.00
   18    4    0     -0.06      0.00
    1    5    0     -0.71      0.00
    2    5    0      0.92      0.00
    3    5    0     -0.67      0.00
    4    5    0      0.36      0.00
    5    5    0     -0.25      0.00
    6    5    0      0.21      0.00
    7    5    0     -0.09      0.00
    8    5    0     -0.03      0.00
    9    5    0      0.01      0.00
   10    5    0      0.05      0.00
   11    5    0      0.05      0.00
   12    5    0     -0.27      0.00
   13    5    0      0.40      0.00
   14    5    0     -0.39      0.00
   15    5    0      0.37      0.00
   16    5    0     -0.46      0.00
    0    6    0     -0.84      0.00
    1    6    0      0.70      0.00
    2    6    0     -0.24      0.00
    3    6    0     -0.45      0.00
    4    6    0      1.08      0.00
    5    6    0     -1.29      0.00
    6    6    0      1.01      0.00
    7    6    0     -0.50      0.00
    8    6    0      0.02      0.00
    9    6    0      0.37      0.00
   10    6    0     -0.64      0.00
   11    6    0      0.64      0.00
   12    6    0     -0.26      0.00
   13    6    0     -0.32      0.00
    1    7    0      0.21      0.00
    2    7    0     -0.17      0.00
    3    7    0     -0.14      0.00
    4    7    0      0.45      0.00
    5    7    0     -0.51      0.00
    6    7    0      0.30      0.00
    7    7    0     -0.03      0.00
    8    7    0     -0.13      0.00
    9    7    0      0.13      0.00
  -21    1    1     -0.18      0.00
  -20    1    1      0.30      0.00
  -19    1    1     -0.45      0.00
  -18    1    1      0.74      0.00
  -17    1    1     -1.05      0.00
  -16    1    1      0.98      0.00
  -15    1    1     -0.26      0.00
  -14    1    1     -0.93      0.00
  -13    1    1      2.05      0.00
  -12    1    1     -2.45      0.00
  -11    1    1      1.59      0.00
  -10    1    1      0.68      0.00
   -9    1    1     -3.80      0.00
   -8    1    1      6.45      0.00
   -7    1    1     -7.24      0.00
   -6    1    1      5.62      0.00
   -5    1    1     -2.23      0.00
   -4    1    1     -1.73      0.00
   -3    1    1      5.36      0.00
   -2    1    1     -8.35      0.00
   -1    1    1     10.71      0.00
    0    1    1    -12.47      0.00
    1    1    1     13.70      0.00
    2    1    1    -14.36      0.00
    3    1    1     14.02      0.00
    4    1    1    -11.96      0.00
    5    1    1      7.88      0.00
    6    1    1     -2.57      0.00
    7    1    1     -2.22      0.00
    8    1    1      4.95      0.00
    9    1    1     -5.15      0.00
   10    1    1      3.46      0.00
   11    1    1     -1.04      0.00
   12    1    1     -1.04      0.00
   13    1    1      2.08      0.00
   14    1    1     -1.96      0.00
   15    1    1      1.15      0.00
   16    1    1     -0.39      0.00
   17    1    1      0.05      0.00
   18    1    1      0.01      0.00
   19    1    1     -0.11      0.00
   20    1    1      0.23      0.00
   21    1    1     -0.18      0.00
  -21    2    1     -0.14      0.00
  -20    2    1     -0.09      0.00
  -19    2    1      0.47      0.00
  -18    2    1     -0.74      0.00
  -17    2    1      0.81      0.00
  -16    2    1     -0.85      0.00
  -15    2    1      1.11      0.00
  -14    2    1     -1.49      0.00
  -13    2    1      1.53      0.00
  -12    2    1     -0.92      0.00
  -11    2    1     -0.13      0.00
  -10    2    1      0.94      0.00
   -9    2    1     -0.85      0.00
   -8    2    1     -0.37      0.00
   -7    2    1      2.22      0.00
   -6    2    1     -3.63      0.00
   -5    2    1      3.50      0.00
   -4    2    1     -1.53      0.00
   -3    2    1     -1.21      0.00
   -2    2    1      2.81      0.00
   -1    2    1     -1.87      0.00
    0    2    1     -1.30      0.00
    1    2    1      4.82      0.00
    2    2    1     -6.61      0.00
    3    2    1      5.80      0.00
    4    2    1     -3.06      0.00
    5    2    1     -0.09      0.00
    6    2    1      2.21      0.00
    7    2    1     -2.59      0.00
    8    2    1      1.52      0.00
    9    2    1     -0.05      0.00
   10    2    1     -0.71      0.00
   11    2    1      0.35      0.00
   12    2    1      0.53      0.00
   13    2    1     -1.02      0.00
   14    2    1      0.82      0.00
   15    2    1     -0.35      0.00
   16    2    1      0.23      0.00
   17    2    1     -0.52      0.00
   18    2    1      0.80      0.00
   19    2    1     -0.74      0.00
   20    2    1      0.43      0.00
  -20    3    1      0.81      0.00
  -19    3    1     -0.45      0.00
  -18    3    1      0.14      0.00
  -17    3    1     -0.23      0.00
  -16    3    1      0.42      0.00
  -15    3    1     -0.08      0.00
  -14    3    1     -0.87      0.00
  -13    3    1      1.65      0.00
  -12    3    1     -1.46      0.00
  -11    3    1      0.46      0.00
  -10    3    1      0.32      0.00
   -9    3    1     -0.25      0.00
   -8    3    1     -0.26      0.00
   -7    3    1      0.45      0.00
   -6    3    1     -0.25      0.00
   -5    3    1      0.26      0.00
   -4    3    1     -0.62      0.00
   -3    3    1      0.66      0.00
   -2    3    1      0.26      0.00
   -1    3    1     -1.61      0.00
    0    3    1      2.12      0.00
    1    3    1     -1.27      0.00
    2    3    1     -0.06      0.00
    3    3    1      0.62      0.00
    4    3    1     -0.29      0.00
    5    3    1     -0.04      0.00
    6    3    1     -0.23      0.00
    7    3    1      0.70      0.00
    8    3    1     -0.74      0.00
    9    3    1      0.52      0.00
   10    3    1     -0.77      0.00
   11    3    1      1.67      0.00
   12    3    1     -2.40      0.00
   13    3    1      2.14      0.00
   14    3    1     -1.08      0.00
   15    3    1      0.22      0.00
   16    3    1     -0.20      0.00
   17    3    1      0.67      0.00
   18    3    1     -0.86      0.00
   19    3    1      0.54      0.00
  -18    4    1     -0.66      0.00
  -17    4    1      0.42      0.00
  -16    4    1      0.08      0.00
  -15    4    1     -0.40      0.00
  -14    4    1      0.26      0.00
  -13    4    1      0.14      0.00
  -12    4    1     -0.42      0.00
  -11    4    1      0.49      0.00
  -10    4    1     -0.64      0.00
   -9    4    1      1.08      0.00
   -8    4    1     -1.58      0.00
   -7    4    1      1.70      0.00
   -6    4    1     -1.38      0.00
   -5    4    1      1.01      0.00
   -4    4    1     -1.00      0.00
   -3    4    1      1.29      0.00
   -2    4    1     -1.43      0.00
   -1    4    1      1.07      0.00
    0    4    1     -0.32      0.00
    1    4    1     -0.41      0.00
    2    4    1      0.73      0.00
    3    4    1     -0.58      0.00
    4    4    1      0.23      0.00
    5    4    1     -0.04      0.00
    6    4    1      0.22      0.00
    7    4    1     -0.69      0.00
    8    4    1      1.16      0.00
    9    4    1     -1.30      0.00
   10    4    1      1.04      0.00
   11    4    1     -0.48      0.00
   12    4    1     -0.13      0.00
   13    4    1      0.60      0.00
   14    4    1     -0.79      0.00
   15    4    1      0.63      0.00
   16    4    1     -0.18      0.00
   17    4    1     -0.35      0.00
   18    4    1      0.72      0.00
  -16    5    1      0.06      0.00
  -15    5    1     -0.13      0.00
  -14    5    1      0.57      0.00
  -13    5    1     -1.06      0.00
  -12    5    1      0.94      0.00
  -11    5    1     -0.13      0.00
  -10    5    1     -0.68      0.00
   -9    5    1      0.77      0.00
   -8    5    1     -0.31      0.00
   -7    5    1      0.12      0.00
   -6    5    1     -0.57      0.00
   -5    5    1      1.16      0.00
   -4    5    1     -1.18      0.00
   -3    5    1      0.63      0.00
   -2    5    1     -0.05      0.00
   -1    5    1     -0.30      0.00
    0    5    1      0.61      0.00
    1    5    1     -0.97      0.00
    2    5    1      0.96      0.00
    3    5    1     -0.28      0.00
    4    5    1     -0.61      0.00
    5    5    1      0.95      0.00
    6    5    1     -0.62      0.00
    7    5    1      0.31      0.00
    8    5    1     -0.52      0.00
    9    5    1      0.86      0.00
   10    5    1     -0.55      0.00
   11    5    1     -0.50      0.00
   12    5    1      1.48      0.00
   13    5    1     -1.66      0.00
   14    5    1      1.13      0.00
   15    5    1     -0.51      0.00
   16    5    1      0.17      0.00
  -13    6    1      0.33      0.00
  -12    6    1     -0.23      0.00
  -11    6    1      0.34      0.00
  -10    6    1     -0.71      0.00
   -9    6    1      0.98      0.00
   -8    6    1     -0.68      0.00
   -7    6    1     -0.28      0.00
   -6    6    1      1.43      0.00
   -5    6    1     -2.03      0.00
   -4    6    1      1.63      0.00
   -3    6    1     -0.48      0.00
   -2    6    1     -0.57      0.00
   -1    6    1      0.70      0.00
    0    6    1      0.15      0.00
    1    6    1     -1.17      0.00
    2    6    1      1.30      0.00
    3    6    1     -0.20      0.00
    4    6    1     -1.33      0.00
    5    6    1      2.07      0.00
    6    6    1     -1.50      0.00
    7    6    1      0.20      0.00
    8    6    1      0.82      0.00
    9    6    1     -1.07      0.00
   10    6    1      0.85      0.00
   11    6    1     -0.64      0.00
   12    6    1      0.57      0.00
   13    6    1     -0.44      0.00
   -9    7    1      0.63      0.00
   -8    7    1     -1.04      0.00
   -7    7    1      0.77      0.00
   -6    7    1     -0.04      0.00
   -5    7    1     -0.40      0.00
   -4    7    1      0.16      0.00
   -3    7    1      0.30      0.00
   -2    7    1     -0.31      0.00
   -1    7    1     -0.15      0.00
    0    7    1      0.44      0.00
    1    7    1     -0.16      0.00
    2    7    1     -0.25      0.00
    3    7    1      0.13      0.00
    4    7    1      0.53      0.00
    5    7    1     -0.97      0.00
    6    7    1      0.66      0.00
    7    7    1      0.08      0.00
    8    7    1     -0.53      0.00
  -21    0    2     -1.09      0.00
  -20    0    2      1.33      0.00
  -19    0    2     -0.52      0.00
  -18    0    2     -0.96      0.00
  -17    0    2      2.11      0.00
  -16    0    2     -2.33      0.00
  -15    0    2      1.91      0.00
  -14    0    2     -1.39      0.00
  -13    0    2      0.72      0.00
  -12    0    2      0.47      0.00
  -11    0    2     -2.19      0.00
  -10    0    2      3.93      0.00
   -9    0    2     -5.16      0.00
   -8    0    2      4.99      0.00
   -7    0    2     -1.49      0.00
   -6    0    2     -6.93      0.00
   -5    0    2     17.74      0.00
   -4    0    2    -22.49      0.00
   -3    0    2     11.71      0.00
   -2    0    2     15.79      0.00
   -1    0    2    -48.50      0.00
    0    0    2     69.20      0.00
    1    0    2    -68.00      0.00
    2    0    2     49.23      0.00
    3    0    2    -26.02      0.00
    4    0    2      9.06      0.00
    5    0    2     -0.73      0.00
    6    0    2     -2.14      0.00
    7    0    2      2.66      0.00
    8    0    2     -1.87      0.00
    9    0    2      0.34      0.00
   10    0    2      0.89      0.00
   11    0    2     -1.18      0.00
   12    0    2      1.03      0.00
   13    0    2     -1.12      0.00
   14    0    2      1.24      0.00
   15    0    2     -0.77      0.00
   16    0    2     -0.10      0.00
   17    0    2      0.38      0.00
   18    0    2      0.39      0.00
   19    0    2     -1.48      0.00
   20    0    2      1.85      0.00
  -21    1    2     -0.37      0.00
  -20    1    2      0.68      0.00
  -19    1    2     -0.61      0.00
  -18    1    2      0.19      0.00
  -17    1    2      0.16      0.00
  -16    1    2     -0.09      0.00
  -15    1    2     -0.25      0.00
  -14    1    2      0.56      0.00
  -13    1    2     -0.85      0.00
  -12    1    2      1.33      0.00
  -11    1    2     -1.92      0.00
  -10    1    2      2.00      0.00
   -9    1    2     -1.10      0.00
   -8    1    2     -0.53      0.00
   -7    1    2      2.17      0.00
   -6    1    2     -3.33      0.00
   -5    1    2      3.82      0.00
   -4    1    2     -3.10      0.00
   -3    1    2      0.19      0.00
   -2    1    2      5.11      0.00
   -1    1    2    -11.10      0.00
    0    1    2     14.75      0.00
    1    1    2    -14.04      0.00
    2    1    2      9.82      0.00
    3    1    2     -5.02      0.00
    4    1    2      2.15      0.00
    5    1    2     -1.61      0.00
    6    1    2      2.11      0.00
    7    1    2     -2.37      0.00
    8    1    2      2.08      0.00
    9    1    2     -1.57      0.00
   10    1    2      1.13      0.00
   11    1    2     -0.77      0.00
   12    1    2      0.44      0.00
   13    1    2     -0.16      0.00
   14    1    2     -0.06      0.00
   15    1    2      0.25      0.00
   16    1    2     -0.42      0.00
   17    1    2      0.50      0.00
   18    1    2     -0.43      0.00
   19    1    2      0.22      0.00
   20    1    2      0.00      0.00
  -21    2    2      0.29      0.00
  -20    2    2     -0.30      0.00
  -19    2    2      0.44      0.00
  -18    2    2     -0.60      0.00
  -17    2    2      0.60      0.00
  -16    2    2     -0.38      0.00
  -15    2    2      0.07      0.00
  -14    2    2      0.10      0.00
  -13    2    2      0.01      0.00
  -12    2    2     -0.39      0.00
  -11    2    2      0.84      0.00
  -10    2    2     -1.11      0.00
   -9    2    2      1.07      0.00
   -8    2    2     -0.86      0.00
   -7    2    2      0.74      0.00
   -6    2    2     -0.96      0.00
   -5    2    2      1.63      0.00
   -4    2    2     -2.71      0.00
   -3    2    2      3.94      0.00
   -2    2    2     -4.68      0.00
   -1    2    2      4.19      0.00
    0    2    2     -2.26      0.00
    1    2    2     -0.40      0.00
    2    2    2      2.55      0.00
    3    2    2     -3.42      0.00
    4    2    2      3.22      0.00
    5    2    2     -2.68      0.00
    6    2    2      2.16      0.00
    7    2    2     -1.47      0.00
    8    2    2      0.43      0.00
    9    2    2      0.61      0.00
   10    2    2     -1.15      0.00
   11    2    2      1.05      0.00
   12    2    2     -0.64      0.00
   13    2    2      0.24      0.00
   14    2    2      0.11      0.00
   15    2    2     -0.47      0.00
   16    2    2      0.70      0.00
   17    2    2     -0.60      0.00
   18    2    2      0.25      0.00
   19    2    2      0.03      0.00
   20    2    2     -0.04      0.00
  -20    3    2     -0.16      0.00
  -19    3    2      0.01      0.00
  -18    3    2      0.20      0.00
  -17    3    2     -0.36      0.00
  -16    3    2      0.35      0.00
  -15    3    2     -0.12      0.00
  -14    3    2     -0.22      0.00
  -13    3    2      0.48      0.00
  -12    3    2     -0.47      0.00
  -11    3    2      0.15      0.00
  -10    3    2      0.37      0.00
   -9    3    2     -0.81      0.00
   -8    3    2      0.97      0.00
   -7    3    2     -0.86      0.00
   -6    3    2      0.78      0.00
   -5    3    2     -1.02      0.00
   -4    3    2      1.54      0.00
   -3    3    2     -2.02      0.00
   -2    3    2      2.09      0.00
   -1    3    2     -1.66      0.00
    0    3    2      1.02      0.00
    1    3    2     -0.51      0.00
    2    3    2      0.28      0.00
    3    3    2     -0.28      0.00
    4    3    2      0.40      0.00
    5    3    2     -0.55      0.00
    6    3    2      0.61      0.00
    7    3    2     -0.45      0.00
    8    3    2      0.03      0.00
    9    3    2      0.46      0.00
   10    3    2     -0.75      0.00
   11    3    2      0.66      0.00
   12    3    2     -0.31      0.00
   13    3    2     -0.05      0.00
   14    3    2      0.24      0.00
   15    3    2     -0.22      0.00
   16    3    2      0.08      0.00
   17    3    2      0.07      0.00
   18    3    2     -0.18      0.00
   19    3    2      0.21      0.00
  -18    4    2     -0.80      0.00
  -17    4    2      0.73      0.00
  -16    4    2     -0.70      0.00
  -15    4    2      0.72      0.00
  -14    4    2     -0.42      0.00
  -13    4    2     -0.47      0.00
  -12    4    2      1.68      0.00
  -11    4    2     -2.36      0.00
  -10    4    2      1.96      0.00
   -9    4    2     -0.80      0.00
   -8    4    2     -0.14      0.00
   -7    4    2      0.21      0.00
   -6    4    2      0.37      0.00
   -5    4    2     -0.90      0.00
   -4    4    2      1.01      0.00
   -3    4    2     -0.85      0.00
   -2    4    2      0.66      0.00
   -1    4    2     -0.35      0.00
    0    4    2     -0.32      0.00
    1    4    2      1.16      0.00
    2    4    2     -1.57      0.00
    3    4    2      1.13      0.00
    4    4    2     -0.13      0.00
    5    4    2     -0.62      0.00
    6    4    2      0.56      0.00
    7    4    2      0.05      0.00
    8    4    2     -0.51      0.00
    9    4    2      0.35      0.00
   10    4    2      0.22      0.00
   11    4    2     -0.64      0.00
   12    4    2      0.62      0.00
   13    4    2     -0.41      0.00
   14    4    2      0.44      0.00
   15    4    2     -0.82      0.00
   16    4    2      1.22      0.00
   17    4    2     -1.23      0.00
  -16    5    2      0.40      0.00
  -15    5    2     -0.14      0.00
  -14    5    2      0.16      0.00
  -13    5    2     -0.39      0.00
  -12    5    2      0.52      0.00
  -11    5    2     -0.44      0.00
  -10    5    2      0.33      0.00
   -9    5    2     -0.32      0.00
   -8    5    2      0.37      0.00
   -7    5    2     -0.38      0.00
   -6    5    2      0.37      0.00
   -5    5    2     -0.31      0.00
   -4    5    2      0.10      0.00
   -3    5    2      0.31      0.00
   -2    5    2     -0.67      0.00
   -1    5    2      0.61      0.00
    0    5    2     -0.18      0.00
    1    5    2     -0.22      0.00
    2    5    2      0.27      0.00
    3    5    2     -0.13      0.00
    4    5    2      0.16      0.00
    5    5    2     -0.37      0.00
    6    5    2      0.45      0.00
    7    5    2     -0.25      0.00
    8    5    2      0.05      0.00
    9    5    2     -0.17      0.00
   10    5    2      0.46      0.00
   11    5    2     -0.52      0.00
   12    5    2      0.20      0.00
   13    5    2      0.19      0.00
   14    5    2     -0.32      0.00
   15    5    2      0.18      0.00
  -13    6    2     -0.21      0.00
  -12    6    2     -0.12      0.00
  -11    6    2      0.32      0.00
  -10    6    2     -0.34      0.00
   -9    6    2      0.28      0.00
   -8    6    2     -0.13      0.00
   -7    6    2     -0.31      0.00
   -6    6    2      1.03      0.00
   -5    6    2     -1.62      0.00
   -4    6    2      1.58      0.00
   -3    6    2     -0.88      0.00
   -2    6    2      0.01      0.00
   -1    6    2      0.52      0.00
    0    6    2     -0.63      0.00
    1    6    2      0.54      0.00
    2    6    2     -0.39      0.00
    3    6    2      0.13      0.00
    4    6    2      0.27      0.00
    5    6    2     -0.66      0.00
    6    6    2      0.82      0.00
    7    6    2     -0.68      0.00
    8    6    2      0.32      0.00
    9    6    2      0.10      0.00
   10    6    2     -0.39      0.00
   11    6    2      0.37      0.00
   12    6    2     -0.02      0.00
   -9    7    2      0.01      0.00
   -8    7    2     -0.05      0.00
   -7    7    2      0.20      0.00
   -6    7    2     -0.40      0.00
   -5    7    2      0.53      0.00
   -4    7    2     -0.54      0.00
   -3    7    2      0.42      0.00
   -2    7    2     -0.29      0.00
   -1    7    2      0.27      0.00
    0    7    2     -0.39      0.00
    1    7    2      0.55      0.00
    2    7    2     -0.56      0.00
    3    7    2      0.35      0.00
    4    7    2     -0.06      0.00
    5    7    2     -0.14      0.00
    6    7    2      0.22      0.00
    7    7    2     -0.22      0.00
    8    7    2      0.19      0.00
  -21    1    3      0.04      0.00
  -20    1    3      0.06      0.00
  -19    1    3     -0.40      0.00
  -18    1    3      1.08      0.00
  -17    1    3     -1.85      0.00
  -16    1    3      2.26      0.00
  -15    1    3     -1.96      0.00
  -14    1    3      0.91      0.00
  -13    1    3      0.61      0.00
  -12    1    3     -2.09      0.00
  -11    1    3      2.84      0.00
  -10    1    3     -2.20      0.00
   -9    1    3      0.01      0.00
   -8    1    3      3.13      0.00
   -7    1    3     -6.19      0.00
   -6    1    3      8.34      0.00
   -5    1    3     -9.30      0.00
   -4    1    3      9.20      0.00
   -3    1    3     -8.28      0.00
   -2    1    3      6.75      0.00
   -1    1    3     -4.86      0.00
    0    1    3      2.67      0.00
    1    1    3      0.02      0.00
    2    1    3     -3.32      0.00
    3    1    3      6.73      0.00
    4    1    3     -9.07      0.00
    5    1    3      9.25      0.00
    6    1    3     -7.09      0.00
    7    1    3      3.49      0.00
    8    1    3      0.15      0.00
    9    1    3     -2.58      0.00
   10    1    3      3.14      0.00
   11    1    3     -1.98      0.00
   12    1    3      0.05      0.00
   13    1    3      1.47      0.00
   14    1    3     -1.88      0.00
   15    1    3      1.43      0.00
   16    1    3     -0.85      0.00
   17    1    3      0.53      0.00
   18    1    3     -0.30      0.00
   19    1    3     -0.06      0.00
   20    1    3      0.41      0.00
  -21    2    3     -0.17      0.00
  -20    2    3      0.17      0.00
  -19    2    3     -0.03      0.00
  -18    2    3     -0.15      0.00
  -17    2    3      0.28      0.00
  -16    2    3     -0.48      0.00
  -15    2    3      0.88      0.00
  -14    2    3     -1.46      0.00
  -13    2    3      1.94      0.00
  -12    2    3     -1.96      0.00
  -11    2    3      1.31      0.00
  -10    2    3     -0.21      0.00
   -9    2    3     -0.70      0.00
   -8    2    3      0.70      0.00
   -7    2    3      0.47      0.00
   -6    2    3     -2.19      0.00
   -5    2    3      3.25      0.00
   -4    2    3     -2.77      0.00
   -3    2    3      1.06      0.00
   -2    2    3      0.56      0.00
   -1    2    3     -0.75      0.00
    0    2    3     -0.83      0.00
    1    2    3      3.42      0.00
    2    2    3     -5.73      0.00
    3    2    3      6.63      0.00
    4    2    3     -5.65      0.00
    5    2    3      3.19      0.00
    6    2    3     -0.42      0.00
    7    2    3     -1.33      0.00
    8    2    3      1.53      0.00
    9    2    3     -0.79      0.00
   10    2    3      0.25      0.00
   11    2    3     -0.41      0.00
   12    2    3      0.81      0.00
   13    2    3     -0.73      0.00
   14    2    3      0.08      0.00
   15    2    3      0.53      0.00
   16    2    3     -0.54      0.00
   17    2    3      0.04      0.00
   18    2    3      0.47      0.00
   19    2    3     -0.65      0.00
  -20    3    3      0.55      0.00
  -19    3    3     -0.30      0.00
  -18    3    3      0.09      0.00
  -17    3    3     -0.05      0.00
  -16    3    3     -0.06      0.00
  -15    3    3      0.56      0.00
  -14    3    3     -1.28      0.00
  -13    3    3      1.60      0.00
  -12    3    3     -1.12      0.00
  -11    3    3      0.23      0.00
  -10    3    3      0.34      0.00
   -9    3    3     -0.33      0.00
   -8    3    3      0.16      0.00
   -7    3    3     -0.28      0.00
   -6    3    3      0.55      0.00
   -5    3    3     -0.51      0.00
   -4    3    3      0.25      0.00
   -3    3    3     -0.40      0.00
   -2    3    3      1.27      0.00
   -1    3    3     -2.20      0.00
    0    3    3      2.22      0.00
    1    3    3     -1.22      0.00
    2    3    3      0.17      0.00
    3    3    3      0.00      0.00
    4    3    3      0.57      0.00
    5    3    3     -0.95      0.00
    6    3    3      0.64      0.00
    7    3    3     -0.03      0.00
    8    3    3     -0.34      0.00
    9    3    3      0.52      0.00
   10    3    3     -0.95      0.00
   11    3    3      1.62      0.00
   12    3    3     -1.92      0.00
   13    3    3      1.46      0.00
   14    3    3     -0.58      0.00
   15    3    3      0.06      0.00
   16    3    3     -0.18      0.00
   17    3    3      0.59      0.00
   18    3    3     -0.78      0.00
  -19    4    3     -0.32      0.00
  -18    4    3      0.23      0.00
  -17    4    3     -0.47      0.00
  -16    4    3      0.86      0.00
  -15    4    3     -0.93      0.00
  -14    4    3      0.50      0.00
  -13    4    3      0.00      0.00
  -12    4    3     -0.03      0.00
  -11    4    3     -0.33      0.00
  -10    4    3      0.44      0.00
   -9    4    3      0.10      0.00
   -8    4    3     -0.94      0.00
   -7    4    3      1.35      0.00
   -6    4    3     -1.15      0.00
   -5    4    3      0.80      0.00
   -4    4    3     -0.86      0.00
   -3    4    3      1.28      0.00
   -2    4    3     -1.58      0.00
   -1    4    3      1.43      0.00
    0    4    3     -0.93      0.00
    1    4    3      0.36      0.00
    2    4    3      0.05      0.00
    3    4    3     -0.16      0.00
    4    4    3     -0.07      0.00
    5    4    3      0.47      0.00
    6    4    3     -0.63      0.00
    7    4    3      0.25      0.00
    8    4    3      0.50      0.00
    9    4    3     -0.99      0.00
   10    4    3      0.78      0.00
   11    4    3     -0.01      0.00
   12    4    3     -0.74      0.00
   13    4    3      1.09      0.00
   14    4    3     -1.09      0.00
   15    4    3      1.01      0.00
   16    4    3     -0.93      0.00
   17    4    3      0.74      0.00
  -17    5    3     -0.71      0.00
  -16    5    3      0.51      0.00
  -15    5    3     -0.23      0.00
  -14    5    3      0.12      0.00
  -13    5    3     -0.12      0.00
  -12    5    3     -0.13      0.00
  -11    5    3      0.74      0.00
  -10    5    3     -1.28      0.00
   -9    5    3      1.31      0.00
   -8    5    3     -0.91      0.00
   -7    5    3      0.62      0.00
   -6    5    3     -0.75      0.00
   -5    5    3      1.03      0.00
   -4    5    3     -1.05      0.00
   -3    5    3      0.77      0.00
   -2    5    3     -0.41      0.00
   -1    5    3      0.00      0.00
    0    5    3      0.60      0.00
    1    5    3     -1.27      0.00
    2    5    3      1.49      0.00
    3    5    3     -0.98      0.00
    4    5    3      0.13      0.00
    5    5    3      0.39      0.00
    6    5    3     -0.43      0.00
    7    5    3      0.46      0.00
    8    5    3     -0.80      0.00
    9    5    3      1.16      0.00
   10    5    3     -0.98      0.00
   11    5    3      0.22      0.00
   12    5    3      0.57      0.00
   13    5    3     -0.91      0.00
   14    5    3      0.83      0.00
   15    5    3     -0.67      0.00
  -14    6    3     -0.74      0.00
  -13    6    3      0.51      0.00
  -12    6    3     -0.25      0.00
  -11    6    3      0.30      0.00
  -10    6    3     -0.56      0.00
   -9    6    3      0.59      0.00
   -8    6    3     -0.07      0.00
   -7    6    3     -0.82      0.00
   -6    6    3      1.62      0.00
   -5    6    3     -1.92      0.00
   -4    6    3      1.51      0.00
   -3    6    3     -0.53      0.00
   -2    6    3     -0.45      0.00
   -1    6    3      0.61      0.00
    0    6    3      0.44      0.00
    1    6    3     -1.98      0.00
    2    6    3      2.64      0.00
    3    6    3     -1.64      0.00
    4    6    3     -0.32      0.00
    5    6    3      1.75      0.00
    6    6    3     -1.80      0.00
    7    6    3      0.94      0.00
    8    6    3     -0.21      0.00
    9    6    3     -0.03      0.00
   10    6    3      0.15      0.00
   11    6    3     -0.51      0.00
   12    6    3      0.92      0.00
   -9    7    3      0.53      0.00
   -8    7    3     -0.92      0.00
   -7    7    3      0.68      0.00
   -6    7    3      0.02      0.00
   -5    7    3     -0.53      0.00
   -4    7    3      0.42      0.00
   -3    7    3      0.02      0.00
   -2    7    3     -0.21      0.00
   -1    7    3      0.05      0.00
    0    7    3      0.04      0.00
    1    7    3      0.21      0.00
    2    7    3     -0.45      0.00
    3    7    3      0.19      0.00
    4    7    3      0.51      0.00
    5    7    3     -1.04      0.00
    6    7    3      0.94      0.00
    7    7    3     -0.43      0.00
  -22    0    4      0.19      0.00
  -21    0    4     -0.47      0.00
  -20    0    4      0.48      0.00
  -19    0    4      0.01      0.00
  -18    0    4     -0.88      0.00
  -17    0    4      1.71      0.00
  -16    0    4     -2.25      0.00
  -15    0    4      2.60      0.00
  -14    0    4     -2.91      0.00
  -13    0    4      3.00      0.00
  -12    0    4     -2.51      0.00
  -11    0    4      1.15      0.00
  -10    0    4      1.29      0.00
   -9    0    4     -4.86      0.00
   -8    0    4      8.45      0.00
   -7    0    4     -9.09      0.00
   -6    0    4      3.55      0.00
   -5    0    4      7.80      0.00
   -4    0    4    -18.76      0.00
   -3    0    4     20.66      0.00
   -2    0    4     -9.69      0.00
   -1    0    4     -8.89      0.00
    0    0    4     24.47      0.00
    1    0    4    -29.55      0.00
    2    0    4     24.62      0.00
    3    0    4    -15.64      0.00
    4    0    4      7.88      0.00
    5    0    4     -2.85      0.00
    6    0    4     -0.16      0.00
    7    0    4      1.61      0.00
    8    0    4     -1.54      0.00
    9    0    4      0.59      0.00
   10    0    4      0.12      0.00
   11    0    4     -0.12      0.00
   12    0    4     -0.05      0.00
   13    0    4     -0.16      0.00
   14    0    4      0.45      0.00
   15    0    4     -0.29      0.00
   16    0    4     -0.15      0.00
   17    0    4      0.22      0.00
   18    0    4      0.31      0.00
   19    0    4     -0.87      0.00
   20    0    4      0.88      0.00
  -22    1    4      0.23      0.00
  -21    1    4     -0.52      0.00
  -20    1    4      0.71      0.00
  -19    1    4     -0.49      0.00
  -18    1    4     -0.04      0.00
  -17    1    4      0.47      0.00
  -16    1    4     -0.54      0.00
  -15    1    4      0.46      0.00
  -14    1    4     -0.47      0.00
  -13    1    4      0.43      0.00
  -12    1    4      0.08      0.00
  -11    1    4     -1.09      0.00
  -10    1    4      1.98      0.00
   -9    1    4     -2.09      0.00
   -8    1    4      1.21      0.00
   -7    1    4      0.56      0.00
   -6    1    4     -3.08      0.00
   -5    1    4      5.73      0.00
   -4    1    4     -6.86      0.00
   -3    1    4      4.44      0.00
   -2    1    4      1.89      0.00
   -1    1    4     -9.50      0.00
    0    1    4     14.36      0.00
    1    1    4    -14.23      0.00
    2    1    4     10.34      0.00
    3    1    4     -5.86      0.00
    4    1    4      3.03      0.00
    5    1    4     -1.92      0.00
    6    1    4      1.53      0.00
    7    1    4     -1.29      0.00
    8    1    4      1.23      0.00
    9    1    4     -1.33      0.00
   10    1    4      1.28      0.00
   11    1    4     -0.93      0.00
   12    1    4      0.56      0.00
   13    1    4     -0.42      0.00
   14    1    4      0.40      0.00
   15    1    4     -0.25      0.00
   16    1    4     -0.01      0.00
   17    1    4      0.13      0.00
   18    1    4     -0.01      0.00
   19    1    4     -0.13      0.00
   20    1    4      0.11      0.00
  -21    2    4     -0.50      0.00
  -20    2    4      0.61      0.00
  -19    2    4     -0.26      0.00
  -18    2    4     -0.36      0.00
  -17    2    4      0.76      0.00
  -16    2    4     -0.70      0.00
  -15    2    4      0.33      0.00
  -14    2    4      0.06      0.00
  -13    2    4     -0.33      0.00
  -12    2    4      0.47      0.00
  -11    2    4     -0.52      0.00
  -10    2    4      0.44      0.00
   -9    2    4     -0.27      0.00
   -8    2    4      0.07      0.00
   -7    2    4      0.25      0.00
   -6    2    4     -1.02      0.00
   -5    2    4      2.53      0.00
   -4    2    4     -4.63      0.00
   -3    2    4      6.56      0.00
   -2    2    4     -7.33      0.00
   -1    2    4      6.42      0.00
    0    2    4     -4.24      0.00
    1    2    4      1.81      0.00
    2    2    4      0.01      0.00
    3    2    4     -1.04      0.00
    4    2    4      1.65      0.00
    5    2    4     -2.14      0.00
    6    2    4      2.35      0.00
    7    2    4     -1.99      0.00
    8    2    4      1.18      0.00
    9    2    4     -0.39      0.00
   10    2    4     -0.01      0.00
   11    2    4      0.09      0.00
   12    2    4     -0.16      0.00
   13    2    4      0.25      0.00
   14    2    4     -0.17      0.00
   15    2    4     -0.18      0.00
   16    2    4      0.52      0.00
   17    2    4     -0.53      0.00
   18    2    4      0.24      0.00
   19    2    4      0.05      0.00
  -20    3    4     -0.35      0.00
  -19    3    4      0.18      0.00
  -18    3    4      0.10      0.00
  -17    3    4     -0.37      0.00
  -16    3    4      0.54      0.00
  -15    3    4     -0.51      0.00
  -14    3    4      0.26      0.00
  -13    3    4      0.14      0.00
  -12    3    4     -0.49      0.00
  -11    3    4      0.61      0.00
  -10    3    4     -0.42      0.00
   -9    3    4      0.07      0.00
   -8    3    4      0.24      0.00
   -7    3    4     -0.40      0.00
   -6    3    4      0.47      0.00
   -5    3    4     -0.51      0.00
   -4    3    4      0.48      0.00
   -3    3    4     -0.33      0.00
   -2    3    4      0.18      0.00
   -1    3    4     -0.25      0.00
    0    3    4      0.65      0.00
    1    3    4     -1.15      0.00
    2    3    4      1.39      0.00
    3    3    4     -1.25      0.00
    4    3    4      1.00      0.00
    5    3    4     -1.00      0.00
    6    3    4      1.25      0.00
    7    3    4     -1.41      0.00
    8    3    4      1.21      0.00
    9    3    4     -0.73      0.00
   10    3    4      0.31      0.00
   11    3    4     -0.20      0.00
   12    3    4      0.31      0.00
   13    3    4     -0.44      0.00
   14    3    4      0.45      0.00
   15    3    4     -0.37      0.00
   16    3    4      0.26      0.00
   17    3    4     -0.17      0.00
   18    3    4      0.12      0.00
  -19    4    4      0.30      0.00
  -18    4    4     -0.37      0.00
  -17    4    4      0.27      0.00
  -16    4    4     -0.30      0.00
  -15    4    4      0.53      0.00
  -14    4    4     -0.56      0.00
  -13    4    4     -0.12      0.00
  -12    4    4      1.39      0.00
  -11    4    4     -2.38      0.00
  -10    4    4      2.30      0.00
   -9    4    4     -1.23      0.00
   -8    4    4      0.04      0.00
   -7    4    4      0.53      0.00
   -6    4    4     -0.47      0.00
   -5    4    4      0.19      0.00
   -4    4    4      0.08      0.00
   -3    4    4     -0.42      0.00
   -2    4    4      0.80      0.00
   -1    4    4     -0.93      0.00
    0    4    4      0.53      0.00
    1    4    4      0.16      0.00
    2    4    4     -0.58      0.00
    3    4    4      0.41      0.00
    4    4    4      0.10      0.00
    5    4    4     -0.42      0.00
    6    4    4      0.31      0.00
    7    4    4      0.08      0.00
    8    4    4     -0.39      0.00
    9    4    4      0.47      0.00
   10    4    4     -0.41      0.00
   11    4    4      0.39      0.00
   12    4    4     -0.44      0.00
   13    4    4      0.43      0.00
   14    4    4     -0.16      0.00
   15    4    4     -0.33      0.00
   16    4    4      0.76      0.00
   17    4    4     -0.84      0.00
  -17    5    4     -0.43      0.00
  -16    5    4      0.12      0.00
  -15    5    4      0.19      0.00
  -14    5    4     -0.22      0.00
  -13    5    4      0.02      0.00
  -12    5    4      0.15      0.00
  -11    5    4     -0.16      0.00
  -10    5    4      0.10      0.00
   -9    5    4     -0.05      0.00
   -8    5    4     -0.04      0.00
   -7    5    4      0.17      0.00
   -6    5    4     -0.23      0.00
   -5    5    4      0.15      0.00
   -4    5    4     -0.05      0.00
   -3    5    4      0.03      0.00
   -2    5    4     -0.01      0.00
   -1    5    4     -0.14      0.00
    0    5    4      0.34      0.00
    1    5    4     -0.34      0.00
    2    5    4      0.06      0.00
    3    5    4      0.20      0.00
    4    5    4     -0.17      0.00
    5    5    4     -0.02      0.00
    6    5    4      0.00      0.00
    7    5    4      0.27      0.00
    8    5    4     -0.39      0.00
    9    5    4      0.05      0.00
   10    5    4      0.47      0.00
   11    5    4     -0.59      0.00
   12    5    4      0.13      0.00
   13    5    4      0.45      0.00
   14    5    4     -0.64      0.00
  -14    6    4      0.03      0.00
  -13    6    4     -0.01      0.00
  -12    6    4      0.05      0.00
  -11    6    4     -0.20      0.00
  -10    6    4      0.35      0.00
   -9    6    4     -0.39      0.00
   -8    6    4      0.37      0.00
   -7    6    4     -0.54      0.00
   -6    6    4      0.99      0.00
   -5    6    4     -1.39      0.00
   -4    6    4      1.27      0.00
   -3    6    4     -0.62      0.00
   -2    6    4     -0.10      0.00
   -1    6    4      0.40      0.00
    0    6    4     -0.28      0.00
    1    6    4      0.12      0.00
    2    6    4     -0.09      0.00
    3    6    4      0.03      0.00
    4    6    4      0.27      0.00
    5    6    4     -0.70      0.00
    6    6    4      0.90      0.00
    7    6    4     -0.69      0.00
    8    6    4      0.25      0.00
    9    6    4      0.06      0.00
   10    6    4     -0.07      0.00
   11    6    4     -0.13      0.00
   12    6    4      0.32      0.00
   -9    7    4      0.18      0.00
   -8    7    4     -0.29      0.00
   -7    7    4      0.37      0.00
   -6    7    4     -0.34      0.00
   -5    7    4      0.32      0.00
   -4    7    4     -0.46      0.00
   -3    7    4      0.71      0.00
   -2    7    4     -0.86      0.00
   -1    7    4      0.81      0.00
    0    7    4     -0.67      0.00
    1    7    4      0.65      0.00
    2    7    4     -0.78      0.00
    3    7    4      0.93      0.00
    4    7    4     -0.91      0.00
    5    7    4      0.63      0.00
    6    7    4     -0.17      0.00
    7    7    4     -0.29      0.00
  -22    1    5     -0.52      0.00
  -21    1    5      0.86      0.00
  -20    1    5     -1.12      0.00
  -19    1    5      0.96      0.00
  -18    1    5     -0.25      0.00
  -17    1    5     -0.78      0.00
  -16    1    5      1.67      0.00
  -15    1    5     -2.08      0.00
  -14    1    5      1.93      0.00
  -13    1    5     -1.24      0.00
  -12    1    5      0.13      0.00
  -11    1    5      1.12      0.00
  -10    1    5     -1.97      0.00
   -9    1    5      1.94      0.00
   -8    1    5     -0.84      0.00
   -7    1    5     -1.12      0.00
   -6    1    5      3.57      0.00
   -5    1    5     -6.09      0.00
   -4    1    5      8.24      0.00
   -3    1    5     -9.63      0.00
   -2    1    5     10.13      0.00
   -1    1    5     -9.95      0.00
    0    1    5      9.28      0.00
    1    1    5     -8.01      0.00
    2    1    5      5.80      0.00
    3    1    5     -2.62      0.00
    4    1    5     -0.99      0.00
    5    1    5      4.01      0.00
    6    1    5     -5.48      0.00
    7    1    5      4.93      0.00
    8    1    5     -2.77      0.00
    9    1    5      0.15      0.00
   10    1    5      1.57      0.00
   11    1    5     -1.70      0.00
   12    1    5      0.70      0.00
   13    1    5      0.34      0.00
   14    1    5     -0.72      0.00
   15    1    5      0.62      0.00
   16    1    5     -0.56      0.00
   17    1    5      0.68      0.00
   18    1    5     -0.63      0.00
   19    1    5      0.26      0.00
  -21    2    5      0.14      0.00
  -20    2    5      0.03      0.00
  -19    2    5     -0.20      0.00
  -18    2    5      0.38      0.00
  -17    2    5     -0.58      0.00
  -16    2    5      0.66      0.00
  -15    2    5     -0.39      0.00
  -14    2    5     -0.31      0.00
  -13    2    5      1.22      0.00
  -12    2    5     -1.89      0.00
  -11    2    5      1.87      0.00
  -10    2    5     -1.04      0.00
   -9    2    5     -0.24      0.00
   -8    2    5      1.26      0.00
   -7    2    5     -1.42      0.00
   -6    2    5      0.70      0.00
   -5    2    5      0.30      0.00
   -4    2    5     -0.80      0.00
   -3    2    5      0.43      0.00
   -2    2    5      0.58      0.00
   -1    2    5     -1.55      0.00
    0    2    5      1.71      0.00
    1    2    5     -0.65      0.00
    2    2    5     -1.40      0.00
    3    2    5      3.54      0.00
    4    2    5     -4.62      0.00
    5    2    5      4.09      0.00
    6    2    5     -2.46      0.00
    7    2    5      0.85      0.00
    8    2    5     -0.01      0.00
    9    2    5     -0.20      0.00
   10    2    5      0.36      0.00
   11    2    5     -0.64      0.00
   12    2    5      0.74      0.00
   13    2    5     -0.35      0.00
   14    2    5     -0.30      0.00
   15    2    5      0.73      0.00
   16    2    5     -0.66      0.00
   17    2    5      0.28      0.00
   18    2    5      0.10      0.00
   19    2    5     -0.32      0.00
  -20    3    5     -0.04      0.00
  -19    3    5      0.19      0.00
  -18    3    5     -0.25      0.00
  -17    3    5      0.30      0.00
  -16    3    5     -0.51      0.00
  -15    3    5      0.90      0.00
  -14    3    5     -1.26      0.00
  -13    3    5      1.30      0.00
  -12    3    5     -0.99      0.00
  -11    3    5      0.63      0.00
  -10    3    5     -0.50      0.00
   -9    3    5      0.56      0.00
   -8    3    5     -0.50      0.00
   -7    3    5      0.19      0.00
   -6    3    5      0.14      0.00
   -5    3    5     -0.24      0.00
   -4    3    5      0.24      0.00
   -3    3    5     -0.61      0.00
   -2    3    5      1.44      0.00
   -1    3    5     -2.17      0.00
    0    3    5      2.15      0.00
    1    3    5     -1.39      0.00
    2    3    5      0.65      0.00
    3    3    5     -0.58      0.00
    4    3    5      1.05      0.00
    5    3    5     -1.36      0.00
    6    3    5      1.07      0.00
    7    3    5     -0.42      0.00
    8    3    5     -0.13      0.00
    9    3    5      0.41      0.00
   10    3    5     -0.56      0.00
   11    3    5      0.67      0.00
   12    3    5     -0.65      0.00
   13    3    5      0.45      0.00
   14    3    5     -0.20      0.00
   15    3    5      0.07      0.00
   16    3    5     -0.03      0.00
   17    3    5     -0.04      0.00
   18    3    5      0.16      0.00
  -19    4    5     -0.16      0.00
  -18    4    5      0.13      0.00
  -17    4    5     -0.34      0.00
  -16    4    5      0.64      0.00
  -15    4    5     -0.69      0.00
  -14    4    5      0.40      0.00
  -13    4    5     -0.16      0.00
  -12    4    5      0.34      0.00
  -11    4    5     -0.80      0.00
  -10    4    5      0.95      0.00
   -9    4    5     -0.54      0.00
   -8    4    5     -0.01      0.00
   -7    4    5      0.08      0.00
   -6    4    5      0.40      0.00
   -5    4    5     -0.87      0.00
   -4    4    5      0.82      0.00
   -3    4    5     -0.28      0.00
   -2    4    5     -0.34      0.00
   -1    4    5      0.75      0.00
    0    4    5     -0.87      0.00
    1    4    5      0.74      0.00
    2    4    5     -0.44      0.00
    3    4    5      0.17      0.00
    4    4    5     -0.22      0.00
    5    4    5      0.58      0.00
    6    4    5     -0.84      0.00
    7    4    5      0.56      0.00
    8    4    5      0.14      0.00
    9    4    5     -0.64      0.00
   10    4    5      0.52      0.00
   11    4    5     -0.02      0.00
   12    4    5     -0.28      0.00
   13    4    5      0.16      0.00
   14    4    5      0.06      0.00
   15    4    5      0.00      0.00
   16    4    5     -0.31      0.00
  -17    5    5     -0.98      0.00
  -16    5    5      1.01      0.00
  -15    5    5     -0.75      0.00
  -14    5    5      0.45      0.00
  -13    5    5     -0.25      0.00
  -12    5    5      0.07      0.00
  -11    5    5      0.30      0.00
  -10    5    5     -0.78      0.00
   -9    5    5      1.11      0.00
   -8    5    5     -1.11      0.00
   -7    5    5      0.88      0.00
   -6    5    5     -0.60      0.00
   -5    5    5      0.37      0.00
   -4    5    5     -0.16      0.00
   -3    5    5     -0.04      0.00
   -2    5    5      0.20      0.00
   -1    5    5     -0.38      0.00
    0    5    5      0.65      0.00
    1    5    5     -0.92      0.00
    2    5    5      0.98      0.00
    3    5    5     -0.70      0.00
    4    5    5      0.28      0.00
    5    5    5     -0.02      0.00
    6    5    5     -0.05      0.00
    7    5    5      0.13      0.00
    8    5    5     -0.38      0.00
    9    5    5      0.68      0.00
   10    5    5     -0.81      0.00
   11    5    5      0.70      0.00
   12    5    5     -0.49      0.00
   13    5    5      0.28      0.00
   14    5    5     -0.04      0.00
  -14    6    5     -0.63      0.00
  -13    6    5      0.28      0.00
  -12    6    5      0.10      0.00
  -11    6    5     -0.11      0.00
  -10    6    5     -0.12      0.00
   -9    6    5      0.10      0.00
   -8    6    5      0.36      0.00
   -7    6    5     -0.95      0.00
   -6    6    5      1.31      0.00
   -5    6    5     -1.28      0.00
   -4    6    5      0.85      0.00
   -3    6    5     -0.01      0.00
   -2    6    5     -0.89      0.00
   -1    6    5      1.11      0.00
    0    6    5     -0.08      0.00
    1    6    5     -1.73      0.00
    2    6    5      2.92      0.00
    3    6    5     -2.44      0.00
    4    6    5      0.75      0.00
    5    6    5      0.74      0.00
    6    6    5     -1.17      0.00
    7    6    5      0.92      0.00
    8    6    5     -0.82      0.00
    9    6    5      1.02      0.00
   10    6    5     -1.00      0.00
   11    6    5      0.43      0.00
   -9    7    5      0.57      0.00
   -8    7    5     -0.79      0.00
   -7    7    5      0.51      0.00
   -6    7    5      0.17      0.00
   -5    7    5     -0.72      0.00
   -4    7    5      0.76      0.00
   -3    7    5     -0.42      0.00
   -2    7    5      0.12      0.00
   -1    7    5     -0.03      0.00
    0    7    5     -0.01      0.00
    1    7    5      0.16      0.00
    2    7    5     -0.28      0.00
    3    7    5      0.16      0.00
    4    7    5      0.15      0.00
    5    7    5     -0.32      0.00
    6    7    5      0.16      0.00
  -22    0    6      0.25      0.00
  -21    0    6     -0.28      0.00
  -20    0    6      0.36      0.00
  -19    0    6     -0.34      0.00
  -18    0    6      0.09      0.00
  -17    0    6      0.40      0.00
  -16    0    6     -1.01      0.00
  -15    0    6      1.63      0.00
  -14    0    6     -2.22      0.00
  -13    0    6      2.77      0.00
  -12    0    6     -3.26      0.00
  -11    0    6      3.42      0.00
  -10    0    6     -2.49      0.00
   -9    0    6     -0.48      0.00
   -8    0    6      5.38      0.00
   -7    0    6     -9.97      0.00
   -6    0    6     10.73      0.00
   -5    0    6     -5.78      0.00
   -4    0    6     -2.59      0.00
   -3    0    6      8.95      0.00
   -2    0    6     -9.04      0.00
   -1    0    6      3.23      0.00
    0    0    6      4.18      0.00
    1    0    6     -8.84      0.00
    2    0    6      9.48      0.00
    3    0    6     -7.50      0.00
    4    0    6      4.76      0.00
    5    0    6     -2.15      0.00
    6    0    6      0.00      0.00
    7    0    6      1.30      0.00
    8    0    6     -1.54      0.00
    9    0    6      1.09      0.00
   10    0    6     -0.64      0.00
   11    0    6      0.49      0.00
   12    0    6     -0.46      0.00
   13    0    6      0.39      0.00
   14    0    6     -0.42      0.00
   15    0    6      0.65      0.00
   16    0    6     -0.80      0.00
   17    0    6      0.57      0.00
   18    0    6     -0.02      0.00
   19    0    6     -0.38      0.00
  -22    1    6      0.01      0.00
  -21    1    6     -0.14      0.00
  -20    1    6      0.32      0.00
  -19    1    6     -0.39      0.00
  -18    1    6      0.29      0.00
  -17    1    6     -0.16      0.00
  -16    1    6      0.06      0.00
  -15    1    6      0.19      0.00
  -14    1    6     -0.78      0.00
  -13    1    6      1.48      0.00
  -12    1    6     -1.69      0.00
  -11    1    6      1.02      0.00
  -10    1    6      0.23      0.00
   -9    1    6     -1.38      0.00
   -8    1    6      1.83      0.00
   -7    1    6     -1.25      0.00
   -6    1    6     -0.51      0.00
   -5    1    6      3.09      0.00
   -4    1    6     -5.13      0.00
   -3    1    6      4.80      0.00
   -2    1    6     -1.45      0.00
   -1    1    6     -3.45      0.00
    0    1    6      7.21      0.00
    1    1    6     -8.21      0.00
    2    1    6      6.90      0.00
    3    1    6     -4.84      0.00
    4    1    6      3.05      0.00
    5    1    6     -1.62      0.00
    6    1    6      0.51      0.00
    7    1    6      0.02      0.00
    8    1    6      0.16      0.00
    9    1    6     -0.57      0.00
   10    1    6      0.59      0.00
   11    1    6     -0.19      0.00
   12    1    6     -0.11      0.00
   13    1    6      0.05      0.00
   14    1    6      0.10      0.00
   15    1    6     -0.03      0.00
   16    1    6     -0.16      0.00
   17    1    6      0.13      0.00
   18    1    6      0.11      0.00
   19    1    6     -0.24      0.00
  -21    2    6     -1.01      0.00
  -20    2    6      1.20      0.00
  -19    2    6     -0.78      0.00
  -18    2    6      0.03      0.00
  -17    2    6      0.55      0.00
  -16    2    6     -0.78      0.00
  -15    2    6      0.85      0.00
  -14    2    6     -0.92      0.00
  -13    2    6      0.83      0.00
  -12    2    6     -0.43      0.00
  -11    2    6     -0.18      0.00
  -10    2    6      0.69      0.00
   -9    2    6     -0.96      0.00
   -8    2    6      1.05      0.00
   -7    2    6     -0.98      0.00
   -6    2    6      0.48      0.00
   -5    2    6      0.67      0.00
   -4    2    6     -2.23      0.00
   -3    2    6      3.49      0.00
   -2    2    6     -3.87      0.00
   -1    2    6      3.43      0.00
    0    2    6     -2.70      0.00
    1    2    6      2.15      0.00
    2    2    6     -1.72      0.00
    3    2    6      1.11      0.00
    4    2    6     -0.24      0.00
    5    2    6     -0.56      0.00
    6    2    6      0.88      0.00
    7    2    6     -0.70      0.00
    8    2    6      0.39      0.00
    9    2    6     -0.28      0.00
   10    2    6      0.35      0.00
   11    2    6     -0.30      0.00
   12    2    6     -0.01      0.00
   13    2    6      0.34      0.00
   14    2    6     -0.37      0.00
   15    2    6      0.04      0.00
   16    2    6      0.35      0.00
   17    2    6     -0.49      0.00
   18    2    6      0.35      0.00
  -20    3    6     -0.08      0.00
  -19    3    6      0.03      0.00
  -18    3    6      0.01      0.00
  -17    3    6     -0.10      0.00
  -16    3    6      0.28      0.00
  -15    3    6     -0.46      0.00
  -14    3    6      0.48      0.00
  -13    3    6     -0.22      0.00
  -12    3    6     -0.22      0.00
  -11    3    6      0.61      0.00
  -10    3    6     -0.78      0.00
   -9    3    6      0.72      0.00
   -8    3    6     -0.55      0.00
   -7    3    6      0.39      0.00
   -6    3    6     -0.34      0.00
   -5    3    6      0.51      0.00
   -4    3    6     -0.93      0.00
   -3    3    6      1.40      0.00
   -2    3    6     -1.57      0.00
   -1    3    6      1.13      0.00
    0    3    6     -0.24      0.00
    1    3    6     -0.61      0.00
    2    3    6      0.93      0.00
    3    3    6     -0.79      0.00
    4    3    6      0.62      0.00
    5    3    6     -0.79      0.00
    6    3    6      1.20      0.00
    7    3    6     -1.45      0.00
    8    3    6      1.30      0.00
    9    3    6     -0.92      0.00
   10    3    6      0.60      0.00
   11    3    6     -0.44      0.00
   12    3    6      0.33      0.00
   13    3    6     -0.15      0.00
   14    3    6     -0.03      0.00
   15    3    6      0.11      0.00
   16    3    6     -0.07      0.00
   17    3    6     -0.01      0.00
  -19    4    6      0.36      0.00
  -18    4    6     -0.15      0.00
  -17    4    6     -0.18      0.00
  -16    4    6      0.22      0.00
  -15    4    6      0.20      0.00
  -14    4    6     -0.64      0.00
  -13    4    6      0.45      0.00
  -12    4    6      0.42      0.00
  -11    4    6     -1.29      0.00
  -10    4    6      1.44      0.00
   -9    4    6     -0.89      0.00
   -8    4    6      0.26      0.00
   -7    4    6      0.01      0.00
   -6    4    6     -0.05      0.00
   -5    4    6      0.16      0.00
   -4    4    6     -0.29      0.00
   -3    4    6      0.16      0.00
   -2    4    6      0.28      0.00
   -1    4    6     -0.66      0.00
    0    4    6      0.66      0.00
    1    4    6     -0.38      0.00
    2    4    6      0.16      0.00
    3    4    6     -0.16      0.00
    4    4    6      0.27      0.00
    5    4    6     -0.37      0.00
    6    4    6      0.45      0.00
    7    4    6     -0.50      0.00
    8    4    6      0.44      0.00
    9    4    6     -0.19      0.00
   10    4    6     -0.16      0.00
   11    4    6      0.41      0.00
   12    4    6     -0.43      0.00
   13    4    6      0.25      0.00
   14    4    6      0.01      0.00
   15    4    6     -0.27      0.00
   16    4    6      0.44      0.00
  -17    5    6     -0.46      0.00
  -16    5    6      0.39      0.00
  -15    5    6     -0.21      0.00
  -14    5    6      0.06      0.00
  -13    5    6      0.00      0.00
  -12    5    6     -0.02      0.00
  -11    5    6      0.00      0.00
  -10    5    6      0.01      0.00
   -9    5    6      0.11      0.00
   -8    5    6     -0.41      0.00
   -7    5    6      0.78      0.00
   -6    5    6     -0.97      0.00
   -5    5    6      0.88      0.00
   -4    5    6     -0.61      0.00
   -3    5    6      0.28      0.00
   -2    5    6      0.07      0.00
   -1    5    6     -0.46      0.00
    0    5    6      0.74      0.00
    1    5    6     -0.71      0.00
    2    5    6      0.37      0.00
    3    5    6      0.00      0.00
    4    5    6     -0.21      0.00
    5    5    6      0.35      0.00
    6    5    6     -0.60      0.00
    7    5    6      0.87      0.00
    8    5    6     -0.83      0.00
    9    5    6      0.38      0.00
   10    5    6      0.13      0.00
   11    5    6     -0.19      0.00
   12    5    6     -0.22      0.00
   13    5    6      0.65      0.00
  -14    6    6     -0.39      0.00
  -13    6    6      0.40      0.00
  -12    6    6     -0.30      0.00
  -11    6    6      0.06      0.00
  -10    6    6      0.24      0.00
   -9    6    6     -0.44      0.00
   -8    6    6      0.46      0.00
   -7    6    6     -0.46      0.00
   -6    6    6      0.59      0.00
   -5    6    6     -0.75      0.00
   -4    6    6      0.67      0.00
   -3    6    6     -0.29      0.00
   -2    6    6     -0.11      0.00
   -1    6    6      0.22      0.00
    0    6    6     -0.08      0.00
    1    6    6     -0.04      0.00
    2    6    6      0.08      0.00
    3    6    6     -0.26      0.00
    4    6    6      0.72      0.00
    5    6    6     -1.17      0.00
    6    6    6      1.15      0.00
    7    6    6     -0.57      0.00
    8    6    6     -0.07      0.00
    9    6    6      0.25      0.00
   10    6    6      0.08      0.00
   -8    7    6     -0.27      0.00
   -7    7    6      0.20      0.00
   -6    7    6      0.04      0.00
   -5    7    6     -0.15      0.00
   -4    7    6     -0.13      0.00
   -3    7    6      0.66      0.00
   -2    7    6     -0.98      0.00
   -1    7    6      0.80      0.00
    0    7    6     -0.32      0.00
    1    7    6      0.03      0.00
    2    7    6     -0.17      0.00
    3    7    6      0.55      0.00
    4    7    6     -0.82      0.00
    5    7    6      0.71      0.00
  -22    1    7      0.01      0.00
  -21    1    7      0.51      0.00
  -20    1    7     -1.15      0.00
  -19    1    7      1.47      0.00
  -18    1    7     -1.24      0.00
  -17    1    7      0.60      0.00
  -16    1    7      0.14      0.00
  -15    1    7     -0.81      0.00
  -14    1    7      1.40      0.00
  -13    1    7     -1.80      0.00
  -12    1    7      1.78      0.00
  -11    1    7     -1.20      0.00
  -10    1    7      0.21      0.00
   -9    1    7      0.83      0.00
   -8    1    7     -1.59      0.00
   -7    1    7      1.72      0.00
   -6    1    7     -0.99      0.00
   -5    1    7     -0.62      0.00
   -4    1    7      2.69      0.00
   -3    1    7     -4.47      0.00
   -2    1    7      5.44      0.00
   -1    1    7     -5.65      0.00
    0    1    7      5.60      0.00
    1    1    7     -5.64      0.00
    2    1    7      5.55      0.00
    3    1    7     -4.78      0.00
    4    1    7      2.95      0.00
    5    1    7     -0.36      0.00
    6    1    7     -2.03      0.00
    7    1    7      3.17      0.00
    8    1    7     -2.66      0.00
    9    1    7      1.13      0.00
   10    1    7      0.28      0.00
   11    1    7     -0.82      0.00
   12    1    7      0.66      0.00
   13    1    7     -0.41      0.00
   14    1    7      0.35      0.00
   15    1    7     -0.25      0.00
   16    1    7     -0.16      0.00
   17    1    7      0.67      0.00
   18    1    7     -0.85      0.00
  -21    2    7      0.53      0.00
  -20    2    7     -0.48      0.00
  -19    2    7      0.34      0.00
  -18    2    7      0.00      0.00
  -17    2    7     -0.53      0.00
  -16    2    7      1.00      0.00
  -15    2    7     -1.06      0.00
  -14    2    7      0.58      0.00
  -13    2    7      0.22      0.00
  -12    2    7     -0.97      0.00
  -11    2    7      1.37      0.00
  -10    2    7     -1.26      0.00
   -9    2    7      0.59      0.00
   -8    2    7      0.48      0.00
   -7    2    7     -1.50      0.00
   -6    2    7      1.95      0.00
   -5    2    7     -1.61      0.00
   -4    2    7      0.80      0.00
   -3    2    7     -0.18      0.00
   -2    2    7      0.31      0.00
   -1    2    7     -1.14      0.00
    0    2    7      2.00      0.00
    1    2    7     -2.07      0.00
    2    2    7      1.02      0.00
    3    2    7      0.72      0.00
    4    2    7     -2.22      0.00
    5    2    7      2.81      0.00
    6    2    7     -2.49      0.00
    7    2    7      1.70      0.00
    8    2    7     -0.88      0.00
    9    2    7      0.20      0.00
   10    2    7      0.30      0.00
   11    2    7     -0.51      0.00
   12    2    7      0.40      0.00
   13    2    7     -0.10      0.00
   14    2    7     -0.14      0.00
   15    2    7      0.22      0.00
   16    2    7     -0.22      0.00
   17    2    7      0.22      0.00
   18    2    7     -0.18      0.00
  -20    3    7     -0.21      0.00
  -19    3    7      0.09      0.00
  -18    3    7      0.14      0.00
  -17    3    7     -0.27      0.00
  -16    3    7      0.25      0.00
  -15    3    7     -0.16      0.00
  -14    3    7      0.13      0.00
  -13    3    7     -0.21      0.00
  -12    3    7      0.29      0.00
  -11    3    7     -0.23      0.00
  -10    3    7     -0.01      0.00
   -9    3    7      0.31      0.00
   -8    3    7     -0.51      0.00
   -7    3    7      0.58      0.00
   -6    3    7     -0.64      0.00
   -5    3    7      0.81      0.00
   -4    3    7     -0.92      0.00
   -3    3    7      0.67      0.00
   -2    3    7      0.02      0.00
   -1    3    7     -0.76      0.00
    0    3    7      1.04      0.00
    1    3    7     -0.76      0.00
    2    3    7      0.40      0.00
    3    3    7     -0.44      0.00
    4    3    7      0.86      0.00
    5    3    7     -1.13      0.00
    6    3    7      0.82      0.00
    7    3    7     -0.06      0.00
    8    3    7     -0.64      0.00
    9    3    7      0.88      0.00
   10    3    7     -0.69      0.00
   11    3    7      0.41      0.00
   12    3    7     -0.35      0.00
   13    3    7      0.59      0.00
   14    3    7     -0.93      0.00
   15    3    7      1.09      0.00
   16    3    7     -0.87      0.00
   17    3    7      0.39      0.00
  -19    4    7      0.05      0.00
  -18    4    7     -0.10      0.00
  -17    4    7      0.08      0.00
  -16    4    7      0.02      0.00
  -15    4    7     -0.08      0.00
  -14    4    7      0.06      0.00
  -13    4    7     -0.06      0.00
  -12    4    7      0.17      0.00
  -11    4    7     -0.30      0.00
  -10    4    7      0.21      0.00
   -9    4    7      0.14      0.00
   -8    4    7     -0.43      0.00
   -7    4    7      0.30      0.00
   -6    4    7      0.23      0.00
   -5    4    7     -0.77      0.00
   -4    4    7      0.94      0.00
   -3    4    7     -0.72      0.00
   -2    4    7      0.37      0.00
   -1    4    7     -0.09      0.00
    0    4    7     -0.03      0.00
    1    4    7      0.00      0.00
    2    4    7      0.16      0.00
    3    4    7     -0.31      0.00
    4    4    7      0.26      0.00
    5    4    7      0.00      0.00
    6    4    7     -0.20      0.00
    7    4    7      0.09      0.00
    8    4    7      0.26      0.00
    9    4    7     -0.48      0.00
   10    4    7      0.38      0.00
   11    4    7     -0.14      0.00
   12    4    7      0.10      0.00
   13    4    7     -0.30      0.00
   14    4    7      0.49      0.00
   15    4    7     -0.45      0.00
  -17    5    7     -0.45      0.00
  -16    5    7      0.69      0.00
  -15    5    7     -0.73      0.00
  -14    5    7      0.71      0.00
  -13    5    7     -0.82      0.00
  -12    5    7      1.02      0.00
  -11    5    7     -1.01      0.00
  -10    5    7      0.62      0.00
   -9    5    7     -0.03      0.00
   -8    5    7     -0.30      0.00
   -7    5    7      0.15      0.00
   -6    5    7      0.28      0.00
   -5    5    7     -0.66      0.00
   -4    5    7      0.82      0.00
   -3    5    7     -0.85      0.00
   -2    5    7      0.89      0.00
   -1    5    7     -0.91      0.00
    0    5    7      0.80      0.00
    1    5    7     -0.55      0.00
    2    5    7      0.29      0.00
    3    5    7     -0.15      0.00
    4    5    7      0.14      0.00
    5    5    7     -0.18      0.00
    6    5    7      0.19      0.00
    7    5    7     -0.17      0.00
    8    5    7      0.15      0.00
    9    5    7     -0.13      0.00
   10    5    7      0.05      0.00
   11    5    7      0.09      0.00
   12    5    7     -0.20      0.00
   13    5    7      0.20      0.00
  -13    6    7      0.13      0.00
  -12    6    7      0.39      0.00
  -11    6    7     -0.53      0.00
  -10    6    7      0.34      0.00
   -9    6    7     -0.26      0.00
   -8    6    7      0.44      0.00
   -7    6    7     -0.67      0.00
   -6    6    7      0.68      0.00
   -5    6    7     -0.50      0.00
   -4    6    7      0.21      0.00
   -3    6    7      0.32      0.00
   -2    6    7     -1.07      0.00
   -1    6    7      1.55      0.00
    0    6    7     -1.12      0.00
    1    6    7     -0.09      0.00
    2    6    7      1.11      0.00
    3    6    7     -1.10      0.00
    4    6    7      0.31      0.00
    5    6    7      0.30      0.00
    6    6    7     -0.20      0.00
    7    6    7     -0.14      0.00
    8    6    7      0.05      0.00
    9    6    7      0.48      0.00
   10    6    7     -0.84      0.00
   -8    7    7     -0.38      0.00
   -7    7    7      0.29      0.00
   -6    7    7      0.06      0.00
   -5    7    7     -0.39      0.00
   -4    7    7      0.47      0.00
   -3    7    7     -0.29      0.00
   -2    7    7      0.06      0.00
   -1    7    7      0.05      0.00
    0    7    7     -0.02      0.00
    1    7    7     -0.08      0.00
    2    7    7      0.18      0.00
    3    7    7     -0.23      0.00
    4    7    7      0.17      0.00
  -22    0    8     -0.53      0.00
  -21    0    8      0.59      0.00
  -20    0    8     -0.45      0.00
  -19    0    8      0.28      0.00
  -18    0    8     -0.33      0.00
  -17    0    8      0.65      0.00
  -16    0    8     -1.06      0.00
  -15    0    8      1.25      0.00
  -14    0    8     -1.13      0.00
  -13    0    8      0.98      0.00
  -12    0    8     -1.37      0.00
  -11    0    8      2.52      0.00
  -10    0    8     -3.70      0.00
   -9    0    8      3.35      0.00
   -8    0    8     -0.45      0.00
   -7    0    8     -4.12      0.00
   -6    0    8      7.63      0.00
   -5    0    8     -7.52      0.00
   -4    0    8      3.77      0.00
   -3    0    8      0.97      0.00
   -2    0    8     -3.48      0.00
   -1    0    8      2.55      0.00
    0    0    8      0.48      0.00
    1    0    8     -3.34      0.00
    2    0    8      4.71      0.00
    3    0    8     -4.72      0.00
    4    0    8      4.01      0.00
    5    0    8     -2.97      0.00
    6    0    8      1.69      0.00
    7    0    8     -0.34      0.00
    8    0    8     -0.68      0.00
    9    0    8      1.07      0.00
   10    0    8     -0.81      0.00
   11    0    8      0.20      0.00
   12    0    8      0.32      0.00
   13    0    8     -0.42      0.00
   14    0    8      0.07      0.00
   15    0    8      0.46      0.00
   16    0    8     -0.78      0.00
   17    0    8      0.69      0.00
   18    0    8     -0.38      0.00
  -22    1    8     -0.41      0.00
  -21    1    8      0.54      0.00
  -20    1    8     -0.32      0.00
  -19    1    8     -0.09      0.00
  -18    1    8      0.38      0.00
  -17    1    8     -0.48      0.00
  -16    1    8      0.53      0.00
  -15    1    8     -0.42      0.00
  -14    1    8     -0.12      0.00
  -13    1    8      1.08      0.00
  -12    1    8     -1.84      0.00
  -11    1    8      1.76      0.00
  -10    1    8     -0.81      0.00
   -9    1    8     -0.40      0.00
   -8    1    8      1.30      0.00
   -7    1    8     -1.65      0.00
   -6    1    8      1.37      0.00
   -5    1    8     -0.32      0.00
   -4    1    8     -1.27      0.00
   -3    1    8      2.47      0.00
   -2    1    8     -2.20      0.00
   -1    1    8      0.18      0.00
    0    1    8      2.69      0.00
    1    1    8     -5.04      0.00
    2    1    8      6.03      0.00
    3    1    8     -5.56      0.00
    4    1    8      4.04      0.00
    5    1    8     -2.11      0.00
    6    1    8      0.52      0.00
    7    1    8      0.22      0.00
    8    1    8     -0.19      0.00
    9    1    8     -0.03      0.00
   10    1    8     -0.02      0.00
   11    1    8      0.21      0.00
   12    1    8     -0.21      0.00
   13    1    8      0.02      0.00
   14    1    8      0.03      0.00
   15    1    8      0.21      0.00
   16    1    8     -0.46      0.00
   17    1    8      0.42      0.00
   18    1    8     -0.14      0.00
  -21    2    8     -0.50      0.00
  -20    2    8      0.63      0.00
  -19    2    8     -0.47      0.00
  -18    2    8      0.25      0.00
  -17    2    8     -0.13      0.00
  -16    2    8     -0.05      0.00
  -15    2    8      0.55      0.00
  -14    2    8     -1.31      0.00
  -13    2    8      1.87      0.00
  -12    2    8     -1.81      0.00
  -11    2    8      1.18      0.00
  -10    2    8     -0.38      0.00
   -9    2    8     -0.29      0.00
   -8    2    8      0.79      0.00
   -7    2    8     -1.14      0.00
   -6    2    8      1.21      0.00
   -5    2    8     -0.88      0.00
   -4    2    8      0.32      0.00
   -3    2    8      0.13      0.00
   -2    2    8     -0.30      0.00
   -1    2    8      0.36      0.00
    0    2    8     -0.56      0.00
    1    2    8      0.80      0.00
    2    2    8     -0.77      0.00
    3    2    8      0.37      0.00
    4    2    8      0.10      0.00
    5    2    8     -0.22      0.00
    6    2    8     -0.07      0.00
    7    2    8      0.39      0.00
    8    2    8     -0.37      0.00
    9    2    8     -0.02      0.00
   10    2    8      0.41      0.00
   11    2    8     -0.51      0.00
   12    2    8      0.34      0.00
   13    2    8     -0.16      0.00
   14    2    8      0.18      0.00
   15    2    8     -0.35      0.00
   16    2    8      0.47      0.00
   17    2    8     -0.44      0.00
  -20    3    8      0.19      0.00
  -19    3    8     -0.06      0.00
  -18    3    8     -0.18      0.00
  -17    3    8      0.32      0.00
  -16    3    8     -0.23      0.00
  -15    3    8      0.03      0.00
  -14    3    8      0.07      0.00
  -13    3    8      0.06      0.00
  -12    3    8     -0.33      0.00
  -11    3    8      0.52      0.00
  -10    3    8     -0.54      0.00
   -9    3    8      0.41      0.00
   -8    3    8     -0.25      0.00
   -7    3    8      0.14      0.00
   -6    3    8     -0.12      0.00
   -5    3    8      0.27      0.00
   -4    3    8     -0.62      0.00
   -3    3    8      1.07      0.00
   -2    3    8     -1.36      0.00
   -1    3    8      1.28      0.00
    0    3    8     -0.94      0.00
    1    3    8      0.62      0.00
    2    3    8     -0.52      0.00
    3    3    8      0.53      0.00
    4    3    8     -0.43      0.00
    5    3    8      0.17      0.00
    6    3    8      0.06      0.00
    7    3    8     -0.07      0.00
    8    3    8     -0.06      0.00
    9    3    8      0.11      0.00
   10    3    8      0.01      0.00
   11    3    8     -0.13      0.00
   12    3    8      0.05      0.00
   13    3    8      0.19      0.00
   14    3    8     -0.37      0.00
   15    3    8      0.31      0.00
   16    3    8     -0.09      0.00
  -19    4    8      0.43      0.00
  -18    4    8     -0.21      0.00
  -17    4    8     -0.11      0.00
  -16    4    8      0.14      0.00
  -15    4    8      0.26      0.00
  -14    4    8     -0.75      0.00
  -13    4    8      0.84      0.00
  -12    4    8     -0.53      0.00
  -11    4    8      0.24      0.00
  -10    4    8     -0.26      0.00
   -9    4    8      0.36      0.00
   -8    4    8     -0.16      0.00
   -7    4    8     -0.27      0.00
   -6    4    8      0.48      0.00
   -5    4    8     -0.22      0.00
   -4    4    8     -0.14      0.00
   -3    4    8      0.08      0.00
   -2    4    8      0.41      0.00
   -1    4    8     -0.88      0.00
    0    4    8      0.92      0.00
    1    4    8     -0.60      0.00
    2    4    8      0.18      0.00
    3    4    8      0.16      0.00
    4    4    8     -0.35      0.00
    5    4    8      0.30      0.00
    6    4    8      0.03      0.00
    7    4    8     -0.45      0.00
    8    4    8      0.57      0.00
    9    4    8     -0.24      0.00
   10    4    8     -0.25      0.00
   11    4    8      0.48      0.00
   12    4    8     -0.32      0.00
   13    4    8      0.01      0.00
   14    4    8      0.19      0.00
  -16    5    8      0.62      0.00
  -15    5    8     -0.64      0.00
  -14    5    8      0.43      0.00
  -13    5    8     -0.17      0.00
  -12    5    8      0.07      0.00
  -11    5    8     -0.16      0.00
  -10    5    8      0.28      0.00
   -9    5    8     -0.22      0.00
   -8    5    8     -0.02      0.00
   -7    5    8      0.28      0.00
   -6    5    8     -0.38      0.00
   -5    5    8      0.34      0.00
   -4    5    8     -0.25      0.00
   -3    5    8      0.15      0.00
   -2    5    8      0.04      0.00
   -1    5    8     -0.31      0.00
    0    5    8      0.51      0.00
    1    5    8     -0.45      0.00
    2    5    8      0.14      0.00
    3    5    8      0.25      0.00
    4    5    8     -0.54      0.00
    5    5    8      0.67      0.00
    6    5    8     -0.71      0.00
    7    5    8      0.62      0.00
    8    5    8     -0.39      0.00
    9    5    8      0.12      0.00
   10    5    8     -0.02      0.00
   11    5    8      0.18      0.00
   12    5    8     -0.42      0.00
  -13    6    8      0.29      0.00
  -12    6    8     -0.32      0.00
  -11    6    8      0.24      0.00
  -10    6    8     -0.05      0.00
   -9    6    8     -0.13      0.00
   -8    6    8      0.11      0.00
   -7    6    8      0.04      0.00
   -6    6    8     -0.09      0.00
   -5    6    8     -0.07      0.00
   -4    6    8      0.29      0.00
   -3    6    8     -0.38      0.00
   -2    6    8      0.34      0.00
   -1    6    8     -0.27      0.00
    0    6    8      0.15      0.00
    1    6    8      0.05      0.00
    2    6    8     -0.22      0.00
    3    6    8      0.09      0.00
    4    6    8      0.39      0.00
    5    6    8     -0.80      0.00
    6    6    8      0.66      0.00
    7    6    8      0.02      0.00
    8    6    8     -0.64      0.00
    9    6    8      0.65      0.00
   -7    7    8      0.04      0.00
   -6    7    8      0.20      0.00
   -5    7    8     -0.31      0.00
   -4    7    8      0.03      0.00
   -3    7    8      0.49      0.00
   -2    7    8     -0.79      0.00
   -1    7    8      0.58      0.00
    0    7    8     -0.07      0.00
    1    7    8     -0.30      0.00
    2    7    8      0.29      0.00
    3    7    8     -0.06      0.00
  -22    1    9      0.83      0.00
  -21    1    9     -0.51      0.00
  -20    1    9     -0.09      0.00
  -19    1    9      0.58      0.00
  -18    1    9     -0.78      0.00
  -17    1    9      0.77      0.00
  -16    1    9     -0.64      0.00
  -15    1    9      0.32      0.00
  -14    1    9      0.28      0.00
  -13    1    9     -1.04      0.00
  -12    1    9      1.68      0.00
  -11    1    9     -2.00      0.00
  -10    1    9      1.92      0.00
   -9    1    9     -1.39      0.00
   -8    1    9      0.40      0.00
   -7    1    9      0.77      0.00
   -6    1    9     -1.48      0.00
   -5    1    9      1.16      0.00
   -4    1    9      0.11      0.00
   -3    1    9     -1.56      0.00
   -2    1    9      2.41      0.00
   -1    1    9     -2.54      0.00
    0    1    9      2.50      0.00
    1    1    9     -2.83      0.00
    2    1    9      3.48      0.00
    3    1    9     -3.85      0.00
    4    1    9      3.34      0.00
    5    1    9     -1.89      0.00
    6    1    9      0.11      0.00
    7    1    9      1.20      0.00
    8    1    9     -1.60      0.00
    9    1    9      1.29      0.00
   10    1    9     -0.80      0.00
   11    1    9      0.43      0.00
   12    1    9     -0.12      0.00
   13    1    9     -0.27      0.00
   14    1    9      0.61      0.00
   15    1    9     -0.59      0.00
   16    1    9      0.18      0.00
   17    1    9      0.32      0.00
  -21    2    9      0.03      0.00
  -20    2    9     -0.19      0.00
  -19    2    9      0.36      0.00
  -18    2    9     -0.25      0.00
  -17    2    9     -0.21      0.00
  -16    2    9      0.71      0.00
  -15    2    9     -0.89      0.00
  -14    2    9      0.69      0.00
  -13    2    9     -0.32      0.00
  -12    2    9     -0.13      0.00
  -11    2    9      0.71      0.00
  -10    2    9     -1.35      0.00
   -9    2    9      1.64      0.00
   -8    2    9     -1.16      0.00
   -7    2    9      0.04      0.00
   -6    2    9      1.03      0.00
   -5    2    9     -1.41      0.00
   -4    2    9      1.05      0.00
   -3    2    9     -0.48      0.00
   -2    2    9      0.29      0.00
   -1    2    9     -0.65      0.00
    0    2    9      1.22      0.00
    1    2    9     -1.54      0.00
    2    2    9      1.35      0.00
    3    2    9     -0.71      0.00
    4    2    9     -0.11      0.00
    5    2    9      0.81      0.00
    6    2    9     -1.15      0.00
    7    2    9      1.01      0.00
    8    2    9     -0.52      0.00
    9    2    9     -0.03      0.00
   10    2    9      0.29      0.00
   11    2    9     -0.19      0.00
   12    2    9     -0.05      0.00
   13    2    9      0.12      0.00
   14    2    9      0.02      0.00
   15    2    9     -0.12      0.00
   16    2    9     -0.04      0.00
  -20    3    9     -0.65      0.00
  -19    3    9      0.41      0.00
  -18    3    9     -0.06      0.00
  -17    3    9     -0.22      0.00
  -16    3    9      0.37      0.00
  -15    3    9     -0.47      0.00
  -14    3    9      0.60      0.00
  -13    3    9     -0.76      0.00
  -12    3    9      0.90      0.00
  -11    3    9     -0.93      0.00
  -10    3    9      0.81      0.00
   -9    3    9     -0.60      0.00
   -8    3    9      0.41      0.00
   -7    3    9     -0.26      0.00
   -6    3    9      0.07      0.00
   -5    3    9      0.25      0.00
   -4    3    9     -0.58      0.00
   -3    3    9      0.61      0.00
   -2    3    9     -0.28      0.00
   -1    3    9     -0.13      0.00
    0    3    9      0.20      0.00
    1    3    9      0.15      0.00
    2    3    9     -0.46      0.00
    3    3    9      0.33      0.00
    4    3    9      0.19      0.00
    5    3    9     -0.57      0.00
    6    3    9      0.40      0.00
    7    3    9      0.22      0.00
    8    3    9     -0.79      0.00
    9    3    9      0.94      0.00
   10    3    9     -0.72      0.00
   11    3    9      0.45      0.00
   12    3    9     -0.42      0.00
   13    3    9      0.67      0.00
   14    3    9     -1.01      0.00
   15    3    9      1.17      0.00
  -19    4    9     -0.09      0.00
  -18    4    9      0.17      0.00
  -17    4    9     -0.09      0.00
  -16    4    9     -0.01      0.00
  -15    4    9      0.01      0.00
  -14    4    9      0.03      0.00
  -13    4    9      0.01      0.00
  -12    4    9     -0.14      0.00
  -11    4    9      0.29      0.00
  -10    4    9     -0.43      0.00
   -9    4    9      0.61      0.00
   -8    4    9     -0.82      0.00
   -7    4    9      0.92      0.00
   -6    4    9     -0.84      0.00
   -5    4    9      0.67      0.00
   -4    4    9     -0.55      0.00
   -3    4    9      0.50      0.00
   -2    4    9     -0.37      0.00
   -1    4    9      0.04      0.00
    0    4    9      0.37      0.00
    1    4    9     -0.66      0.00
    2    4    9      0.76      0.00
    3    4    9     -0.70      0.00
    4    4    9      0.55      0.00
    5    4    9     -0.35      0.00
    6    4    9      0.12      0.00
    7    4    9      0.02      0.00
    8    4    9     -0.05      0.00
    9    4    9      0.00      0.00
   10    4    9     -0.01      0.00
   11    4    9      0.16      0.00
   12    4    9     -0.40      0.00
   13    4    9      0.63      0.00
   14    4    9     -0.74      0.00
  -16    5    9     -0.31      0.00
  -15    5    9      0.19      0.00
  -14    5    9      0.01      0.00
  -13    5    9     -0.38      0.00
  -12    5    9      0.82      0.00
  -11    5    9     -1.02      0.00
  -10    5    9      0.78      0.00
   -9    5    9     -0.32      0.00
   -8    5    9      0.11      0.00
   -7    5    9     -0.39      0.00
   -6    5    9      0.86      0.00
   -5    5    9     -1.04      0.00
   -4    5    9      0.82      0.00
   -3    5    9     -0.56      0.00
   -2    5    9      0.60      0.00
   -1    5    9     -0.84      0.00
    0    5    9      0.88      0.00
    1    5    9     -0.61      0.00
    2    5    9      0.31      0.00
    3    5    9     -0.29      0.00
    4    5    9      0.50      0.00
    5    5    9     -0.60      0.00
    6    5    9      0.42      0.00
    7    5    9     -0.13      0.00
    8    5    9     -0.01      0.00
    9    5    9     -0.07      0.00
   10    5    9      0.21      0.00
   11    5    9     -0.28      0.00
  -13    6    9      0.07      0.00
  -12    6    9      0.36      0.00
  -11    6    9     -0.45      0.00
  -10    6    9      0.19      0.00
   -9    6    9      0.03      0.00
   -8    6    9      0.02      0.00
   -7    6    9     -0.16      0.00
   -6    6    9      0.19      0.00
   -5    6    9     -0.18      0.00
   -4    6    9      0.26      0.00
   -3    6    9     -0.28      0.00
   -2    6    9      0.00      0.00
   -1    6    9      0.46      0.00
    0    6    9     -0.69      0.00
    1    6    9      0.54      0.00
    2    6    9     -0.36      0.00
    3    6    9      0.49      0.00
    4    6    9     -0.76      0.00
    5    6    9      0.66      0.00
    6    6    9     -0.06      0.00
    7    6    9     -0.55      0.00
    8    6    9      0.65      0.00
   -6    7    9     -0.03      0.00
   -5    7    9     -0.07      0.00
   -4    7    9      0.17      0.00
   -3    7    9     -0.18      0.00
   -2    7    9      0.06      0.00
   -1    7    9      0.08      0.00
    0    7    9     -0.11      0.00
    1    7    9     -0.04      0.00
    2    7    9      0.23      0.00
  -22    0   10     -0.61      0.00
  -21    0   10      0.59      0.00
  -20    0   10     -0.49      0.00
  -19    0   10      0.42      0.00
  -18    0   10     -0.51      0.00
  -17    0   10      0.79      0.00
  -16    0   10     -1.07      0.00
  -15    0   10      0.94      0.00
  -14    0   10     -0.16      0.00
  -13    0   10     -0.86      0.00
  -12    0   10      1.08      0.00
  -11    0   10      0.29      0.00
  -10    0   10     -2.71      0.00
   -9    0   10      4.40      0.00
   -8    0   10     -3.77      0.00
   -7    0   10      0.98      0.00
   -6    0   10      2.04      0.00
   -5    0   10     -3.26      0.00
   -4    0   10      2.32      0.00
   -3    0   10     -0.54      0.00
   -2    0   10     -0.46      0.00
   -1    0   10      0.24      0.00
    0    0   10      0.50      0.00
    1    0   10     -0.94      0.00
    2    0   10      1.04      0.00
    3    0   10     -1.31      0.00
    4    0   10      2.04      0.00
    5    0   10     -2.80      0.00
    6    0   10      2.84      0.00
    7    0   10     -1.89      0.00
    8    0   10      0.44      0.00
    9    0   10      0.61      0.00
   10    0   10     -0.74      0.00
   11    0   10      0.16      0.00
   12    0   10      0.48      0.00
   13    0   10     -0.69      0.00
   14    0   10      0.40      0.00
   15    0   10      0.05      0.00
   16    0   10     -0.36      0.00
   17    0   10      0.43      0.00
  -22    1   10     -0.73      0.00
  -21    1   10      0.96      0.00
  -20    1   10     -0.75      0.00
  -19    1   10      0.43      0.00
  -18    1   10     -0.43      0.00
  -17    1   10      0.61      0.00
  -16    1   10     -0.53      0.00
  -15    1   10      0.16      0.00
  -14    1   10     -0.03      0.00
  -13    1   10      0.53      0.00
  -12    1   10     -1.23      0.00
  -11    1   10      1.41      0.00
  -10    1   10     -0.85      0.00
   -9    1   10      0.06      0.00
   -8    1   10      0.55      0.00
   -7    1   10     -1.05      0.00
   -6    1   10      1.51      0.00
   -5    1   10     -1.46      0.00
   -4    1   10      0.30      0.00
   -3    1   10      1.62      0.00
   -2    1   10     -2.85      0.00
   -1    1   10      2.08      0.00
    0    1   10      0.55      0.00
    1    1   10     -3.57      0.00
    2    1   10      5.37      0.00
    3    1   10     -5.36      0.00
    4    1   10      4.12      0.00
    5    1   10     -2.58      0.00
    6    1   10      1.38      0.00
    7    1   10     -0.65      0.00
    8    1   10      0.22      0.00
    9    1   10      0.07      0.00
   10    1   10     -0.18      0.00
   11    1   10     -0.02      0.00
   12    1   10      0.44      0.00
   13    1   10     -0.75      0.00
   14    1   10      0.63      0.00
   15    1   10     -0.15      0.00
   16    1   10     -0.29      0.00
  -21    2   10      0.13      0.00
  -20    2   10     -0.11      0.00
  -19    2   10     -0.05      0.00
  -18    2   10      0.43      0.00
  -17    2   10     -0.86      0.00
  -16    2   10      0.98      0.00
  -15    2   10     -0.51      0.00
  -14    2   10     -0.43      0.00
  -13    2   10      1.33      0.00
  -12    2   10     -1.72      0.00
  -11    2   10      1.54      0.00
  -10    2   10     -1.08      0.00
   -9    2   10      0.59      0.00
   -8    2   10     -0.10      0.00
   -7    2   10     -0.43      0.00
   -6    2   10      0.89      0.00
   -5    2   10     -1.05      0.00
   -4    2   10      0.79      0.00
   -3    2   10     -0.26      0.00
   -2    2   10     -0.25      0.00
   -1    2   10      0.49      0.00
    0    2   10     -0.35      0.00
    1    2   10     -0.13      0.00
    2    2   10      0.78      0.00
    3    2   10     -1.26      0.00
    4    2   10      1.30      0.00
    5    2   10     -0.89      0.00
    6    2   10      0.34      0.00
    7    2   10      0.00      0.00
    8    2   10      0.00      0.00
    9    2   10     -0.15      0.00
   10    2   10      0.23      0.00
   11    2   10     -0.19      0.00
   12    2   10      0.18      0.00
   13    2   10     -0.30      0.00
   14    2   10      0.48      0.00
   15    2   10     -0.54      0.00
   16    2   10      0.38      0.00
  -20    3   10      0.02      0.00
  -19    3   10      0.16      0.00
  -18    3   10     -0.34      0.00
  -17    3   10      0.34      0.00
  -16    3   10     -0.17      0.00
  -15    3   10      0.02      0.00
  -14    3   10     -0.09      0.00
  -13    3   10      0.35      0.00
  -12    3   10     -0.59      0.00
  -11    3   10      0.58      0.00
  -10    3   10     -0.36      0.00
   -9    3   10      0.09      0.00
   -8    3   10      0.07      0.00
   -7    3   10     -0.17      0.00
   -6    3   10      0.33      0.00
   -5    3   10     -0.52      0.00
   -4    3   10      0.55      0.00
   -3    3   10     -0.22      0.00
   -2    3   10     -0.40      0.00
   -1    3   10      1.05      0.00
    0    3   10     -1.43      0.00
    1    3   10      1.44      0.00
    2    3   10     -1.15      0.00
    3    3   10      0.68      0.00
    4    3   10     -0.22      0.00
    5    3   10     -0.02      0.00
    6    3   10     -0.06      0.00
    7    3   10      0.34      0.00
    8    3   10     -0.49      0.00
    9    3   10      0.32      0.00
   10    3   10      0.05      0.00
   11    3   10     -0.29      0.00
   12    3   10      0.22      0.00
   13    3   10      0.02      0.00
   14    3   10     -0.15      0.00
   15    3   10      0.06      0.00
  -18    4   10     -0.02      0.00
  -17    4   10     -0.04      0.00
  -16    4   10     -0.01      0.00
  -15    4   10      0.18      0.00
  -14    4   10     -0.29      0.00
  -13    4   10      0.24      0.00
  -12    4   10     -0.21      0.00
  -11    4   10      0.43      0.00
  -10    4   10     -0.72      0.00
   -9    4   10      0.63      0.00
   -8    4   10     -0.02      0.00
   -7    4   10     -0.63      0.00
   -6    4   10      0.69      0.00
   -5    4   10     -0.17      0.00
   -4    4   10     -0.30      0.00
   -3    4   10      0.15      0.00
   -2    4   10      0.46      0.00
   -1    4   10     -0.94      0.00
    0    4   10      0.90      0.00
    1    4   10     -0.48      0.00
    2    4   10     -0.03      0.00
    3    4   10      0.47      0.00
    4    4   10     -0.78      0.00
    5    4   10      0.82      0.00
    6    4   10     -0.53      0.00
    7    4   10      0.16      0.00
    8    4   10     -0.08      0.00
    9    4   10      0.38      0.00
   10    4   10     -0.73      0.00
   11    4   10      0.74      0.00
   12    4   10     -0.42      0.00
   13    4   10      0.09      0.00
  -16    5   10      0.63      0.00
  -15    5   10     -0.65      0.00
  -14    5   10      0.34      0.00
  -13    5   10      0.04      0.00
  -12    5   10     -0.20      0.00
  -11    5   10      0.11      0.00
  -10    5   10     -0.01      0.00
   -9    5   10      0.03      0.00
   -8    5   10     -0.09      0.00
   -7    5   10      0.07      0.00
   -6    5   10      0.01      0.00
   -5    5   10     -0.01      0.00
   -4    5   10     -0.10      0.00
   -3    5   10      0.20      0.00
   -2    5   10     -0.15      0.00
   -1    5   10      0.01      0.00
    0    5   10      0.01      0.00
    1    5   10      0.23      0.00
    2    5   10     -0.68      0.00
    3    5   10      1.12      0.00
    4    5   10     -1.28      0.00
    5    5   10      1.02      0.00
    6    5   10     -0.36      0.00
    7    5   10     -0.42      0.00
    8    5   10      0.94      0.00
    9    5   10     -0.92      0.00
   10    5   10      0.46      0.00
   11    5   10      0.07      0.00
  -12    6   10      0.32      0.00
  -11    6   10     -0.36      0.00
  -10    6   10      0.47      0.00
   -9    6   10     -0.52      0.00
   -8    6   10      0.36      0.00
   -7    6   10     -0.06      0.00
   -6    6   10     -0.12      0.00
   -5    6   10     -0.01      0.00
   -4    6   10      0.35      0.00
   -3    6   10     -0.64      0.00
   -2    6   10      0.77      0.00
   -1    6   10     -0.71      0.00
    0    6   10      0.48      0.00
    1    6   10     -0.10      0.00
    2    6   10     -0.29      0.00
    3    6   10      0.42      0.00
    4    6   10     -0.22      0.00
    5    6   10     -0.04      0.00
    6    6   10     -0.02      0.00
    7    6   10      0.39      0.00
   -4    7   10     -0.18      0.00
   -3    7   10      0.39      0.00
   -2    7   10     -0.49      0.00
   -1    7   10      0.38      0.00
  -21    1   11     -0.22      0.00
  -20    1   11     -0.10      0.00
  -19    1   11      0.33      0.00
  -18    1   11     -0.48      0.00
  -17    1   11      0.67      0.00
  -16    1   11     -0.88      0.00
  -15    1   11      0.94      0.00
  -14    1   11     -0.72      0.00
  -13    1   11      0.31      0.00
  -12    1   11      0.23      0.00
  -11    1   11     -0.94      0.00
  -10    1   11      1.78      0.00
   -9    1   11     -2.37      0.00
   -8    1   11      2.22      0.00
   -7    1   11     -1.25      0.00
   -6    1   11      0.11      0.00
   -5    1   11      0.45      0.00
   -4    1   11     -0.21      0.00
   -3    1   11     -0.35      0.00
   -2    1   11      0.70      0.00
   -1    1   11     -0.82      0.00
    0    1   11      1.08      0.00
    1    1   11     -1.72      0.00
    2    1   11      2.51      0.00
    3    1   11     -2.99      0.00
    4    1   11      2.88      0.00
    5    1   11     -2.25      0.00
    6    1   11      1.42      0.00
    7    1   11     -0.66      0.00
    8    1   11      0.06      0.00
    9    1   11      0.42      0.00
   10    1   11     -0.75      0.00
   11    1   11      0.84      0.00
   12    1   11     -0.57      0.00
   13    1   11      0.05      0.00
   14    1   11      0.42      0.00
   15    1   11     -0.57      0.00
   16    1   11      0.39      0.00
  -21    2   11     -0.71      0.00
  -20    2   11      0.48      0.00
  -19    2   11     -0.08      0.00
  -18    2   11     -0.08      0.00
  -17    2   11     -0.13      0.00
  -16    2   11      0.45      0.00
  -15    2   11     -0.62      0.00
  -14    2   11      0.67      0.00
  -13    2   11     -0.70      0.00
  -12    2   11      0.58      0.00
  -11    2   11     -0.03      0.00
  -10    2   11     -0.92      0.00
   -9    2   11      1.69      0.00
   -8    2   11     -1.74      0.00
   -7    2   11      1.05      0.00
   -6    2   11     -0.18      0.00
   -5    2   11     -0.32      0.00
   -4    2   11      0.35      0.00
   -3    2   11     -0.20      0.00
   -2    2   11      0.13      0.00
   -1    2   11     -0.20      0.00
    0    2   11      0.34      0.00
    1    2   11     -0.54      0.00
    2    2   11      0.75      0.00
    3    2   11     -0.82      0.00
    4    2   11      0.58      0.00
    5    2   11     -0.08      0.00
    6    2   11     -0.39      0.00
    7    2   11      0.55      0.00
    8    2   11     -0.37      0.00
    9    2   11      0.11      0.00
   10    2   11     -0.03      0.00
   11    2   11      0.12      0.00
   12    2   11     -0.13      0.00
   13    2   11     -0.09      0.00
   14    2   11      0.39      0.00
   15    2   11     -0.45      0.00
  -20    3   11     -0.66      0.00
  -19    3   11      0.60      0.00
  -18    3   11     -0.44      0.00
  -17    3   11      0.27      0.00
  -16    3   11     -0.18      0.00
  -15    3   11      0.13      0.00
  -14    3   11     -0.04      0.00
  -13    3   11     -0.11      0.00
  -12    3   11      0.26      0.00
  -11    3   11     -0.31      0.00
  -10    3   11      0.23      0.00
   -9    3   11     -0.16      0.00
   -8    3   11      0.23      0.00
   -7    3   11     -0.41      0.00
   -6    3   11      0.48      0.00
   -5    3   11     -0.33      0.00
   -4    3   11      0.16      0.00
   -3    3   11     -0.25      0.00
   -2    3   11      0.57      0.00
   -1    3   11     -0.74      0.00
    0    3   11      0.44      0.00
    1    3   11      0.16      0.00
    2    3   11     -0.55      0.00
    3    3   11      0.42      0.00
    4    3   11      0.03      0.00
    5    3   11     -0.35      0.00
    6    3   11      0.34      0.00
    7    3   11     -0.15      0.00
    8    3   11     -0.03      0.00
    9    3   11      0.17      0.00
   10    3   11     -0.32      0.00
   11    3   11      0.43      0.00
   12    3   11     -0.39      0.00
   13    3   11      0.24      0.00
   14    3   11     -0.12      0.00
  -18    4   11      0.31      0.00
  -17    4   11     -0.28      0.00
  -16    4   11      0.18      0.00
  -15    4   11     -0.15      0.00
  -14    4   11      0.09      0.00
  -13    4   11      0.14      0.00
  -12    4   11     -0.43      0.00
  -11    4   11      0.54      0.00
  -10    4   11     -0.37      0.00
   -9    4   11      0.14      0.00
   -8    4   11     -0.11      0.00
   -7    4   11      0.28      0.00
   -6    4   11     -0.45      0.00
   -5    4   11      0.53      0.00
   -4    4   11     -0.57      0.00
   -3    4   11      0.59      0.00
   -2    4   11     -0.45      0.00
   -1    4   11      0.09      0.00
    0    4   11      0.34      0.00
    1    4   11     -0.54      0.00
    2    4   11      0.46      0.00
    3    4   11     -0.27      0.00
    4    4   11      0.13      0.00
    5    4   11      0.01      0.00
    6    4   11     -0.27      0.00
    7    4   11      0.58      0.00
    8    4   11     -0.67      0.00
    9    4   11      0.44      0.00
   10    4   11     -0.10      0.00
   11    4   11      0.06      0.00
   12    4   11     -0.42      0.00
  -16    5   11     -0.71      0.00
  -15    5   11      0.75      0.00
  -14    5   11     -0.63      0.00
  -13    5   11      0.39      0.00
  -12    5   11     -0.14      0.00
  -11    5   11      0.06      0.00
  -10    5   11     -0.23      0.00
   -9    5   11      0.44      0.00
   -8    5   11     -0.36      0.00
   -7    5   11     -0.11      0.00
   -6    5   11      0.56      0.00
   -5    5   11     -0.48      0.00
   -4    5   11     -0.14      0.00
   -3    5   11      0.70      0.00
   -2    5   11     -0.67      0.00
   -1    5   11      0.16      0.00
    0    5   11      0.25      0.00
    1    5   11     -0.25      0.00
    2    5   11      0.10      0.00
    3    5   11     -0.22      0.00
    4    5   11      0.57      0.00
    5    5   11     -0.70      0.00
    6    5   11      0.35      0.00
    7    5   11      0.24      0.00
    8    5   11     -0.64      0.00
    9    5   11      0.65      0.00
   10    5   11     -0.43      0.00
  -12    6   11      0.42      0.00
  -11    6   11     -0.28      0.00
  -10    6   11     -0.17      0.00
   -9    6   11      0.53      0.00
   -8    6   11     -0.50      0.00
   -7    6   11      0.28      0.00
   -6    6   11     -0.12      0.00
   -5    6   11      0.04      0.00
   -4    6   11      0.20      0.00
   -3    6   11     -0.59      0.00
   -2    6   11      0.88      0.00
   -1    6   11     -0.84      0.00
    0    6   11      0.52      0.00
    1    6   11     -0.09      0.00
    2    6   11     -0.32      0.00
    3    6   11      0.64      0.00
    4    6   11     -0.75      0.00
    5    6   11      0.51      0.00
    6    6   11     -0.08      0.00
  -21    0   12      0.06      0.00
  -20    0   12      0.00      0.00
  -19    0   12     -0.14      0.00
  -18    0   12      0.31      0.00
  -17    0   12     -0.29      0.00
  -16    0   12      0.02      0.00
  -15    0   12      0.04      0.00
  -14    0   12      0.74      0.00
  -13    0   12     -2.15      0.00
  -12    0   12      2.94      0.00
  -11    0   12     -1.92      0.00
  -10    0   12     -0.62      0.00
   -9    0   12      2.96      0.00
   -8    0   12     -3.56      0.00
   -7    0   12      2.47      0.00
   -6    0   12     -1.00      0.00
   -5    0   12      0.12      0.00
   -4    0   12      0.40      0.00
   -3    0   12     -1.27      0.00
   -2    0   12      2.45      0.00
   -1    0   12     -3.03      0.00
    0    0   12      2.29      0.00
    1    0   12     -0.60      0.00
    2    0   12     -0.86      0.00
    3    0   12      1.09      0.00
    4    0   12     -0.14      0.00
    5    0   12     -1.12      0.00
    6    0   12      1.76      0.00
    7    0   12     -1.42      0.00
    8    0   12      0.47      0.00
    9    0   12      0.40      0.00
   10    0   12     -0.71      0.00
   11    0   12      0.51      0.00
   12    0   12     -0.19      0.00
   13    0   12      0.06      0.00
   14    0   12     -0.15      0.00
   15    0   12      0.25      0.00
  -21    1   12      0.31      0.00
  -20    1   12     -0.04      0.00
  -19    1   12      0.05      0.00
  -18    1   12     -0.62      0.00
  -17    1   12      1.27      0.00
  -16    1   12     -1.25      0.00
  -15    1   12      0.49      0.00
  -14    1   12      0.19      0.00
  -13    1   12     -0.11      0.00
  -12    1   12     -0.54      0.00
  -11    1   12      0.99      0.00
  -10    1   12     -0.93      0.00
   -9    1   12      0.63      0.00
   -8    1   12     -0.32      0.00
   -7    1   12     -0.16      0.00
   -6    1   12      0.89      0.00
   -5    1   12     -1.32      0.00
   -4    1   12      0.69      0.00
   -3    1   12      0.83      0.00
   -2    1   12     -1.95      0.00
   -1    1   12      1.50      0.00
    0    1   12      0.40      0.00
    1    1   12     -2.43      0.00
    2    1   12      3.39      0.00
    3    1   12     -3.23      0.00
    4    1   12      2.66      0.00
    5    1   12     -2.25      0.00
    6    1   12      1.92      0.00
    7    1   12     -1.33      0.00
    8    1   12      0.49      0.00
    9    1   12      0.22      0.00
   10    1   12     -0.38      0.00
   11    1   12     -0.03      0.00
   12    1   12      0.63      0.00
   13    1   12     -0.95      0.00
   14    1   12      0.80      0.00
   15    1   12     -0.36      0.00
  -21    2   12      0.36      0.00
  -20    2   12     -0.38      0.00
  -19    2   12      0.15      0.00
  -18    2   12      0.26      0.00
  -17    2   12     -0.66      0.00
  -16    2   12      0.84      0.00
  -15    2   12     -0.64      0.00
  -14    2   12      0.13      0.00
  -13    2   12      0.43      0.00
  -12    2   12     -0.80      0.00
  -11    2   12      0.92      0.00
  -10    2   12     -0.90      0.00
   -9    2   12      0.81      0.00
   -8    2   12     -0.53      0.00
   -7    2   12     -0.05      0.00
   -6    2   12      0.75      0.00
   -5    2   12     -1.06      0.00
   -4    2   12      0.65      0.00
   -3    2   12      0.30      0.00
   -2    2   12     -1.09      0.00
   -1    2   12      1.13      0.00
    0    2   12     -0.43      0.00
    1    2   12     -0.48      0.00
    2    2   12      1.02      0.00
    3    2   12     -1.00      0.00
    4    2   12      0.68      0.00
    5    2   12     -0.41      0.00
    6    2   12      0.38      0.00
    7    2   12     -0.47      0.00
    8    2   12      0.47      0.00
    9    2   12     -0.27      0.00
   10    2   12     -0.06      0.00
   11    2   12      0.31      0.00
   12    2   12     -0.31      0.00
   13    2   12      0.05      0.00
   14    2   12      0.27      0.00
  -20    3   12     -0.31      0.00
  -19    3   12      0.42      0.00
  -18    3   12     -0.33      0.00
  -17    3   12      0.06      0.00
  -16    3   12      0.23      0.00
  -15    3   12     -0.30      0.00
  -14    3   12      0.05      0.00
  -13    3   12      0.39      0.00
  -12    3   12     -0.74      0.00
  -11    3   12      0.81      0.00
  -10    3   12     -0.71      0.00
   -9    3   12      0.65      0.00
   -8    3   12     -0.66      0.00
   -7    3   12      0.52      0.00
   -6    3   12     -0.02      0.00
   -5    3   12     -0.70      0.00
   -4    3   12      1.15      0.00
   -3    3   12     -0.88      0.00
   -2    3   12     -0.04      0.00
   -1    3   12      1.08      0.00
    0    3   12     -1.65      0.00
    1    3   12      1.55      0.00
    2    3   12     -0.95      0.00
    3    3   12      0.23      0.00
    4    3   12      0.31      0.00
    5    3   12     -0.52      0.00
    6    3   12      0.41      0.00
    7    3   12     -0.19      0.00
    8    3   12      0.09      0.00
    9    3   12     -0.21      0.00
   10    3   12      0.39      0.00
   11    3   12     -0.39      0.00
   12    3   12      0.17      0.00
   13    3   12      0.08      0.00
  -18    4   12     -0.01      0.00
  -17    4   12      0.17      0.00
  -16    4   12     -0.26      0.00
  -15    4   12      0.15      0.00
  -14    4   12      0.18      0.00
  -13    4   12     -0.52      0.00
  -12    4   12      0.52      0.00
  -11    4   12     -0.15      0.00
  -10    4   12     -0.15      0.00
   -9    4   12     -0.11      0.00
   -8    4   12      0.85      0.00
   -7    4   12     -1.38      0.00
   -6    4   12      1.18      0.00
   -5    4   12     -0.49      0.00
   -4    4   12      0.02      0.00
   -3    4   12     -0.14      0.00
   -2    4   12      0.53      0.00
   -1    4   12     -0.67      0.00
    0    4   12      0.45      0.00
    1    4   12     -0.14      0.00
    2    4   12     -0.04      0.00
    3    4   12      0.16      0.00
    4    4   12     -0.30      0.00
    5    4   12      0.40      0.00
    6    4   12     -0.35      0.00
    7    4   12      0.25      0.00
    8    4   12     -0.33      0.00
    9    4   12      0.58      0.00
   10    4   12     -0.76      0.00
   11    4   12      0.65      0.00
  -15    5   12     -0.42      0.00
  -14    5   12      0.08      0.00
  -13    5   12      0.28      0.00
  -12    5   12     -0.42      0.00
  -11    5   12      0.39      0.00
  -10    5   12     -0.37      0.00
   -9    5   12      0.39      0.00
   -8    5   12     -0.35      0.00
   -7    5   12      0.23      0.00
   -6    5   12     -0.20      0.00
   -5    5   12      0.37      0.00
   -4    5   12     -0.59      0.00
   -3    5   12      0.56      0.00
   -2    5   12     -0.23      0.00
   -1    5   12     -0.13      0.00
    0    5   12      0.18      0.00
    1    5   12      0.19      0.00
    2    5   12     -0.84      0.00
    3    5   12      1.45      0.00
    4    5   12     -1.70      0.00
    5    5   12      1.33      0.00
    6    5   12     -0.37      0.00
    7    5   12     -0.75      0.00
    8    5   12      1.41      0.00
    9    5   12     -1.32      0.00
  -11    6   12     -0.51      0.00
  -10    6   12      0.64      0.00
   -9    6   12     -0.70      0.00
   -8    6   12      0.60      0.00
   -7    6   12     -0.42      0.00
   -6    6   12      0.32      0.00
   -5    6   12     -0.38      0.00
   -4    6   12      0.50      0.00
   -3    6   12     -0.55      0.00
   -2    6   12      0.52      0.00
   -1    6   12     -0.49      0.00
    0    6   12      0.46      0.00
    1    6   12     -0.32      0.00
    2    6   12      0.04      0.00
    3    6   12      0.24      0.00
    4    6   12     -0.35      0.00
    5    6   12      0.27      0.00
  -21    1   13      0.19      0.00
  -20    1   13     -0.28      0.00
  -19    1   13      0.17      0.00
  -18    1   13     -0.05      0.00
  -17    1   13      0.11      0.00
  -16    1   13     -0.34      0.00
  -15    1   13      0.59      0.00
  -14    1   13     -0.82      0.00
  -13    1   13      1.03      0.00
  -12    1   13     -1.08      0.00
  -11    1   13      0.69      0.00
  -10    1   13      0.23      0.00
   -9    1   13     -1.26      0.00
   -8    1   13      1.80      0.00
   -7    1   13     -1.65      0.00
   -6    1   13      1.16      0.00
   -5    1   13     -0.81      0.00
   -4    1   13      0.70      0.00
   -3    1   13     -0.57      0.00
   -2    1   13      0.33      0.00
   -1    1   13     -0.25      0.00
    0    1   13      0.57      0.00
    1    1   13     -1.23      0.00
    2    1   13      1.83      0.00
    3    1   13     -2.06      0.00
    4    1   13      2.01      0.00
    5    1   13     -1.93      0.00
    6    1   13      1.92      0.00
    7    1   13     -1.86      0.00
    8    1   13      1.51      0.00
    9    1   13     -0.83      0.00
   10    1   13      0.03      0.00
   11    1   13      0.58      0.00
   12    1   13     -0.79      0.00
   13    1   13      0.61      0.00
   14    1   13     -0.27      0.00
  -20    2   13      0.24      0.00
  -19    2   13      0.22      0.00
  -18    2   13     -0.48      0.00
  -17    2   13      0.38      0.00
  -16    2   13     -0.10      0.00
  -15    2   13     -0.20      0.00
  -14    2   13      0.51      0.00
  -13    2   13     -0.82      0.00
  -12    2   13      0.93      0.00
  -11    2   13     -0.63      0.00
  -10    2   13     -0.02      0.00
   -9    2   13      0.61      0.00
   -8    2   13     -0.75      0.00
   -7    2   13      0.45      0.00
   -6    2   13     -0.04      0.00
   -5    2   13     -0.22      0.00
   -4    2   13      0.29      0.00
   -3    2   13     -0.24      0.00
   -2    2   13      0.14      0.00
   -1    2   13      0.00      0.00
    0    2   13     -0.06      0.00
    1    2   13     -0.05      0.00
    2    2   13      0.33      0.00
    3    2   13     -0.60      0.00
    4    2   13      0.65      0.00
    5    2   13     -0.43      0.00
    6    2   13      0.07      0.00
    7    2   13      0.24      0.00
    8    2   13     -0.44      0.00
    9    2   13      0.50      0.00
   10    2   13     -0.46      0.00
   11    2   13      0.31      0.00
   12    2   13     -0.03      0.00
   13    2   13     -0.29      0.00
  -19    3   13      0.32      0.00
  -18    3   13     -0.43      0.00
  -17    3   13      0.53      0.00
  -16    3   13     -0.62      0.00
  -15    3   13      0.64      0.00
  -14    3   13     -0.52      0.00
  -13    3   13      0.30      0.00
  -12    3   13     -0.20      0.00
  -11    3   13      0.37      0.00
  -10    3   13     -0.66      0.00
   -9    3   13      0.72      0.00
   -8    3   13     -0.41      0.00
   -7    3   13      0.00      0.00
   -6    3   13      0.11      0.00
   -5    3   13      0.12      0.00
   -4    3   13     -0.29      0.00
   -3    3   13      0.06      0.00
   -2    3   13      0.38      0.00
   -1    3   13     -0.56      0.00
    0    3   13      0.30      0.00
    1    3   13      0.09      0.00
    2    3   13     -0.20      0.00
    3    3   13      0.01      0.00
    4    3   13      0.17      0.00
    5    3   13     -0.21      0.00
    6    3   13      0.31      0.00
    7    3   13     -0.59      0.00
    8    3   13      0.79      0.00
    9    3   13     -0.54      0.00
   10    3   13     -0.10      0.00
   11    3   13      0.62      0.00
   12    3   13     -0.57      0.00
  -17    4   13     -0.37      0.00
  -16    4   13      0.39      0.00
  -15    4   13     -0.40      0.00
  -14    4   13      0.29      0.00
  -13    4   13      0.03      0.00
  -12    4   13     -0.35      0.00
  -11    4   13      0.39      0.00
  -10    4   13     -0.12      0.00
   -9    4   13     -0.17      0.00
   -8    4   13      0.22      0.00
   -7    4   13     -0.08      0.00
   -6    4   13      0.00      0.00
   -5    4   13     -0.05      0.00
   -4    4   13      0.14      0.00
   -3    4   13     -0.14      0.00
   -2    4   13      0.12      0.00
   -1    4   13     -0.14      0.00
    0    4   13      0.16      0.00
    1    4   13     -0.08      0.00
    2    4   13     -0.04      0.00
    3    4   13      0.05      0.00
    4    4   13      0.05      0.00
    5    4   13     -0.06      0.00
    6    4   13     -0.19      0.00
    7    4   13      0.52      0.00
    8    4   13     -0.58      0.00
    9    4   13      0.25      0.00
   10    4   13      0.18      0.00
   11    4   13     -0.29      0.00
  -15    5   13      0.39      0.00
  -14    5   13     -0.34      0.00
  -13    5   13      0.31      0.00
  -12    5   13     -0.35      0.00
  -11    5   13      0.43      0.00
  -10    5   13     -0.54      0.00
   -9    5   13      0.59      0.00
   -8    5   13     -0.38      0.00
   -7    5   13     -0.11      0.00
   -6    5   13      0.54      0.00
   -5    5   13     -0.42      0.00
   -4    5   13     -0.27      0.00
   -3    5   13      0.98      0.00
   -2    5   13     -1.09      0.00
   -1    5   13      0.66      0.00
    0    5   13     -0.25      0.00
    1    5   13      0.23      0.00
    2    5   13     -0.37      0.00
    3    5   13      0.26      0.00
    4    5   13      0.11      0.00
    5    5   13     -0.29      0.00
    6    5   13      0.01      0.00
    7    5   13      0.49      0.00
    8    5   13     -0.75      0.00
  -10    6   13     -0.56      0.00
   -9    6   13      0.94      0.00
   -8    6   13     -0.91      0.00
   -7    6   13      0.64      0.00
   -6    6   13     -0.48      0.00
   -5    6   13      0.52      0.00
   -4    6   13     -0.46      0.00
   -3    6   13      0.09      0.00
   -2    6   13      0.44      0.00
   -1    6   13     -0.74      0.00
    0    6   13      0.57      0.00
    1    6   13     -0.07      0.00
    2    6   13     -0.42      0.00
    3    6   13      0.58      0.00
  -21    0   14      0.56      0.00
  -20    0   14     -0.60      0.00
  -19    0   14      0.13      0.00
  -18    0   14      0.65      0.00
  -17    0   14     -1.02      0.00
  -16    0   14      0.53      0.00
  -15    0   14      0.23      0.00
  -14    0   14     -0.11      0.00
  -13    0   14     -1.17      0.00
  -12    0   14      2.50      0.00
  -11    0   14     -2.51      0.00
  -10    0   14      1.15      0.00
   -9    0   14      0.35      0.00
   -8    0   14     -0.98      0.00
   -7    0   14      1.00      0.00
   -6    0   14     -1.19      0.00
   -5    0   14      1.51      0.00
   -4    0   14     -1.05      0.00
   -3    0   14     -0.65      0.00
   -2    0   14      2.68      0.00
   -1    0   14     -3.54      0.00
    0    0   14      2.67      0.00
    1    0   14     -0.94      0.00
    2    0   14     -0.39      0.00
    3    0   14      0.74      0.00
    4    0   14     -0.42      0.00
    5    0   14     -0.02      0.00
    6    0   14      0.29      0.00
    7    0   14     -0.34      0.00
    8    0   14      0.21      0.00
    9    0   14     -0.02      0.00
   10    0   14     -0.09      0.00
   11    0   14      0.07      0.00
   12    0   14     -0.05      0.00
   13    0   14      0.16      0.00
   14    0   14     -0.35      0.00
  -21    1   14     -0.36      0.00
  -20    1   14      0.65      0.00
  -19    1   14     -0.46      0.00
  -18    1   14     -0.28      0.00
  -17    1   14      0.95      0.00
  -16    1   14     -0.82      0.00
  -15    1   14     -0.06      0.00
  -14    1   14      0.86      0.00
  -13    1   14     -0.87      0.00
  -12    1   14      0.19      0.00
  -11    1   14      0.55      0.00
  -10    1   14     -0.95      0.00
   -9    1   14      1.07      0.00
   -8    1   14     -1.08      0.00
   -7    1   14      0.83      0.00
   -6    1   14     -0.25      0.00
   -5    1   14     -0.35      0.00
   -4    1   14      0.48      0.00
   -3    1   14     -0.11      0.00
   -2    1   14     -0.20      0.00
   -1    1   14     -0.03      0.00
    0    1   14      0.66      0.00
    1    1   14     -1.09      0.00
    2    1   14      1.06      0.00
    3    1   14     -0.90      0.00
    4    1   14      1.05      0.00
    5    1   14     -1.46      0.00
    6    1   14      1.63      0.00
    7    1   14     -1.20      0.00
    8    1   14      0.37      0.00
    9    1   14      0.29      0.00
   10    1   14     -0.40      0.00
   11    1   14      0.04      0.00
   12    1   14      0.42      0.00
   13    1   14     -0.64      0.00
  -20    2   14     -0.12      0.00
  -19    2   14      0.01      0.00
  -18    2   14      0.06      0.00
  -17    2   14     -0.12      0.00
  -16    2   14      0.22      0.00
  -15    2   14     -0.35      0.00
  -14    2   14      0.40      0.00
  -13    2   14     -0.33      0.00
  -12    2   14      0.18      0.00
  -11    2   14      0.02      0.00
  -10    2   14     -0.30      0.00
   -9    2   14      0.57      0.00
   -8    2   14     -0.57      0.00
   -7    2   14      0.13      0.00
   -6    2   14      0.50      0.00
   -5    2   14     -0.76      0.00
   -4    2   14      0.34      0.00
   -3    2   14      0.39      0.00
   -2    2   14     -0.67      0.00
   -1    2   14      0.11      0.00
    0    2   14      0.81      0.00
    1    2   14     -1.28      0.00
    2    2   14      0.94      0.00
    3    2   14     -0.22      0.00
    4    2   14     -0.22      0.00
    5    2   14      0.10      0.00
    6    2   14      0.30      0.00
    7    2   14     -0.56      0.00
    8    2   14      0.52      0.00
    9    2   14     -0.27      0.00
   10    2   14     -0.01      0.00
   11    2   14      0.20      0.00
   12    2   14     -0.25      0.00
   13    2   14      0.13      0.00
  -19    3   14      0.33      0.00
  -18    3   14     -0.13      0.00
  -17    3   14     -0.14      0.00
  -16    3   14      0.30      0.00
  -15    3   14     -0.24      0.00
  -14    3   14     -0.03      0.00
  -13    3   14      0.39      0.00
  -12    3   14     -0.69      0.00
  -11    3   14      0.91      0.00
  -10    3   14     -1.14      0.00
   -9    3   14      1.48      0.00
   -8    3   14     -1.74      0.00
   -7    3   14      1.57      0.00
   -6    3   14     -0.78      0.00
   -5    3   14     -0.27      0.00
   -4    3   14      0.91      0.00
   -3    3   14     -0.71      0.00
   -2    3   14     -0.13      0.00
   -1    3   14      0.94      0.00
    0    3   14     -1.26      0.00
    1    3   14      1.12      0.00
    2    3   14     -0.83      0.00
    3    3   14      0.61      0.00
    4    3   14     -0.46      0.00
    5    3   14      0.29      0.00
    6    3   14     -0.11      0.00
    7    3   14     -0.07      0.00
    8    3   14      0.24      0.00
    9    3   14     -0.41      0.00
   10    3   14      0.49      0.00
   11    3   14     -0.39      0.00
  -17    4   14      0.19      0.00
  -16    4   14     -0.25      0.00
  -15    4   14      0.00      0.00
  -14    4   14      0.50      0.00
  -13    4   14     -0.88      0.00
  -12    4   14      0.77      0.00
  -11    4   14     -0.27      0.00
  -10    4   14     -0.11      0.00
   -9    4   14     -0.06      0.00
   -8    4   14      0.56      0.00
   -7    4   14     -0.81      0.00
   -6    4   14      0.53      0.00
   -5    4   14     -0.07      0.00
   -4    4   14     -0.09      0.00
   -3    4   14     -0.07      0.00
   -2    4   14      0.16      0.00
   -1    4   14      0.08      0.00
    0    4   14     -0.42      0.00
    1    4   14      0.52      0.00
    2    4   14     -0.34      0.00
    3    4   14      0.12      0.00
    4    4   14     -0.07      0.00
    5    4   14      0.10      0.00
    6    4   14     -0.07      0.00
    7    4   14      0.02      0.00
    8    4   14     -0.06      0.00
    9    4   14      0.22      0.00
   10    4   14     -0.36      0.00
  -14    5   14     -0.08      0.00
  -13    5   14      0.24      0.00
  -12    5   14     -0.25      0.00
  -11    5   14      0.19      0.00
  -10    5   14     -0.15      0.00
   -9    5   14      0.09      0.00
   -8    5   14      0.03      0.00
   -7    5   14     -0.08      0.00
   -6    5   14     -0.12      0.00
   -5    5   14      0.54      0.00
   -4    5   14     -0.82      0.00
   -3    5   14      0.60      0.00
   -2    5   14      0.04      0.00
   -1    5   14     -0.67      0.00
    0    5   14      0.90      0.00
    1    5   14     -0.65      0.00
    2    5   14      0.09      0.00
    3    5   14      0.54      0.00
    4    5   14     -0.95      0.00
    5    5   14      0.91      0.00
    6    5   14     -0.36      0.00
    7    5   14     -0.38      0.00
   -9    6   14     -0.04      0.00
   -8    6   14      0.07      0.00
   -7    6   14     -0.17      0.00
   -6    6   14      0.31      0.00
   -5    6   14     -0.39      0.00
   -4    6   14      0.29      0.00
   -3    6   14     -0.02      0.00
   -2    6   14     -0.25      0.00
   -1    6   14      0.29      0.00
    0    6   14     -0.08      0.00
    1    6   14     -0.14      0.00
    2    6   14      0.15      0.00
  -20    1   15     -0.09      0.00
  -19    1   15     -0.21      0.00
  -18    1   15      0.53      0.00
  -17    1   15     -0.60      0.00
  -16    1   15      0.40      0.00
  -15    1   15     -0.04      0.00
  -14    1   15     -0.42      0.00
  -13    1   15      0.88      0.00
  -12    1   15     -1.21      0.00
  -11    1   15      1.16      0.00
  -10    1   15     -0.71      0.00
   -9    1   15      0.14      0.00
   -8    1   15      0.24      0.00
   -7    1   15     -0.39      0.00
   -6    1   15      0.53      0.00
   -5    1   15     -0.79      0.00
   -4    1   15      1.03      0.00
   -3    1   15     -1.03      0.00
   -2    1   15      0.83      0.00
   -1    1   15     -0.69      0.00
    0    1   15      0.79      0.00
    1    1   15     -0.98      0.00
    2    1   15      1.00      0.00
    3    1   15     -0.78      0.00
    4    1   15      0.54      0.00
    5    1   15     -0.56      0.00
    6    1   15      0.88      0.00
    7    1   15     -1.27      0.00
    8    1   15      1.43      0.00
    9    1   15     -1.16      0.00
   10    1   15      0.52      0.00
   11    1   15      0.20      0.00
   12    1   15     -0.67      0.00
  -20    2   15      0.02      0.00
  -19    2   15      0.40      0.00
  -18    2   15     -0.67      0.00
  -17    2   15      0.64      0.00
  -16    2   15     -0.38      0.00
  -15    2   15      0.06      0.00
  -14    2   15      0.24      0.00
  -13    2   15     -0.52      0.00
  -12    2   15      0.71      0.00
  -11    2   15     -0.74      0.00
  -10    2   15      0.58      0.00
   -9    2   15     -0.36      0.00
   -8    2   15      0.23      0.00
   -7    2   15     -0.28      0.00
   -6    2   15      0.49      0.00
   -5    2   15     -0.76      0.00
   -4    2   15      0.95      0.00
   -3    2   15     -0.99      0.00
   -2    2   15      0.87      0.00
   -1    2   15     -0.70      0.00
    0    2   15      0.59      0.00
    1    2   15     -0.57      0.00
    2    2   15      0.66      0.00
    3    2   15     -0.82      0.00
    4    2   15      1.00      0.00
    5    2   15     -1.07      0.00
    6    2   15      0.86      0.00
    7    2   15     -0.38      0.00
    8    2   15     -0.18      0.00
    9    2   15      0.52      0.00
   10    2   15     -0.54      0.00
   11    2   15      0.36      0.00
   12    2   15     -0.17      0.00
  -18    3   15     -0.63      0.00
  -17    3   15      0.97      0.00
  -16    3   15     -1.22      0.00
  -15    3   15      1.18      0.00
  -14    3   15     -0.81      0.00
  -13    3   15      0.38      0.00
  -12    3   15     -0.27      0.00
  -11    3   15      0.57      0.00
  -10    3   15     -0.87      0.00
   -9    3   15      0.68      0.00
   -8    3   15      0.00      0.00
   -7    3   15     -0.62      0.00
   -6    3   15      0.66      0.00
   -5    3   15     -0.25      0.00
   -4    3   15     -0.08      0.00
   -3    3   15     -0.01      0.00
   -2    3   15      0.25      0.00
   -1    3   15     -0.26      0.00
    0    3   15      0.03      0.00
    1    3   15      0.09      0.00
    2    3   15      0.03      0.00
    3    3   15     -0.13      0.00
    4    3   15     -0.05      0.00
    5    3   15      0.26      0.00
    6    3   15     -0.05      0.00
    7    3   15     -0.58      0.00
    8    3   15      1.04      0.00
    9    3   15     -0.80      0.00
   10    3   15      0.06      0.00
  -16    4   15      0.22      0.00
  -15    4   15     -0.27      0.00
  -14    4   15      0.24      0.00
  -13    4   15     -0.13      0.00
  -12    4   15      0.03      0.00
  -11    4   15     -0.08      0.00
  -10    4   15      0.23      0.00
   -9    4   15     -0.29      0.00
   -8    4   15      0.14      0.00
   -7    4   15      0.09      0.00
   -6    4   15     -0.20      0.00
   -5    4   15      0.09      0.00
   -4    4   15      0.11      0.00
   -3    4   15     -0.21      0.00
   -2    4   15      0.12      0.00
   -1    4   15      0.10      0.00
    0    4   15     -0.35      0.00
    1    4   15      0.49      0.00
    2    4   15     -0.41      0.00
    3    4   15      0.10      0.00
    4    4   15      0.22      0.00
    5    4   15     -0.32      0.00
    6    4   15      0.15      0.00
    7    4   15      0.10      0.00
    8    4   15     -0.17      0.00
  -13    5   15     -0.14      0.00
  -12    5   15      0.08      0.00
  -11    5   15     -0.04      0.00
  -10    5   15      0.02      0.00
   -9    5   15      0.02      0.00
   -8    5   15      0.07      0.00
   -7    5   15     -0.44      0.00
   -6    5   15      0.90      0.00
   -5    5   15     -1.04      0.00
   -4    5   15      0.67      0.00
   -3    5   15     -0.11      0.00
   -2    5   15     -0.14      0.00
   -1    5   15      0.00      0.00
    0    5   15      0.15      0.00
    1    5   15     -0.04      0.00
    2    5   15     -0.15      0.00
    3    5   15      0.13      0.00
    4    5   15      0.09      0.00
    5    5   15     -0.15      0.00
   -7    6   15      0.60      0.00
   -6    6   15     -0.49      0.00
   -5    6   15      0.58      0.00
   -4    6   15     -0.61      0.00
   -3    6   15      0.34      0.00
   -2    6   15      0.17      0.00
   -1    6   15     -0.52      0.00
  -20    0   16     -0.67      0.00
  -19    0   16     -0.20      0.00
  -18    0   16      1.52      0.00
  -17    0   16     -2.13      0.00
  -16    0   16      1.33      0.00
  -15    0   16      0.22      0.00
  -14    0   16     -1.10      0.00
  -13    0   16      0.63      0.00
  -12    0   16      0.50      0.00
  -11    0   16     -1.13      0.00
  -10    0   16      1.04      0.00
   -9    0   16     -0.86      0.00
   -8    0   16      0.98      0.00
   -7    0   16     -0.90      0.00
   -6    0   16      0.11      0.00
   -5    0   16      0.92      0.00
   -4    0   16     -1.14      0.00
   -3    0   16      0.13      0.00
   -2    0   16      1.30      0.00
   -1    0   16     -2.03      0.00
    0    0   16      1.80      0.00
    1    0   16     -1.23      0.00
    2    0   16      0.89      0.00
    3    0   16     -0.72      0.00
    4    0   16      0.44      0.00
    5    0   16     -0.05      0.00
    6    0   16     -0.16      0.00
    7    0   16      0.11      0.00
    8    0   16      0.02      0.00
    9    0   16     -0.07      0.00
   10    0   16      0.11      0.00
   11    0   16     -0.20      0.00
   12    0   16      0.22      0.00
  -20    1   16      0.24      0.00
  -19    1   16     -0.08      0.00
  -18    1   16     -0.33      0.00
  -17    1   16      0.61      0.00
  -16    1   16     -0.41      0.00
  -15    1   16     -0.18      0.00
  -14    1   16      0.65      0.00
  -13    1   16     -0.58      0.00
  -12    1   16      0.07      0.00
  -11    1   16      0.43      0.00
  -10    1   16     -0.67      0.00
   -9    1   16      0.76      0.00
   -8    1   16     -0.91      0.00
   -7    1   16      1.04      0.00
   -6    1   16     -0.91      0.00
   -5    1   16      0.40      0.00
   -4    1   16      0.24      0.00
   -3    1   16     -0.67      0.00
   -2    1   16      0.70      0.00
   -1    1   16     -0.40      0.00
    0    1   16     -0.02      0.00
    1    1   16      0.38      0.00
    2    1   16     -0.52      0.00
    3    1   16      0.35      0.00
    4    1   16      0.09      0.00
    5    1   16     -0.53      0.00
    6    1   16      0.70      0.00
    7    1   16     -0.50      0.00
    8    1   16      0.09      0.00
    9    1   16      0.24      0.00
   10    1   16     -0.28      0.00
   11    1   16      0.09      0.00
  -19    2   16     -0.15      0.00
  -18    2   16     -0.09      0.00
  -17    2   16      0.20      0.00
  -16    2   16     -0.04      0.00
  -15    2   16     -0.29      0.00
  -14    2   16      0.55      0.00
  -13    2   16     -0.64      0.00
  -12    2   16      0.59      0.00
  -11    2   16     -0.44      0.00
  -10    2   16      0.16      0.00
   -9    2   16      0.20      0.00
   -8    2   16     -0.42      0.00
   -7    2   16      0.34      0.00
   -6    2   16     -0.11      0.00
   -5    2   16      0.05      0.00
   -4    2   16     -0.26      0.00
   -3    2   16      0.34      0.00
   -2    2   16      0.13      0.00
   -1    2   16     -1.01      0.00
    0    2   16      1.65      0.00
    1    2   16     -1.54      0.00
    2    2   16      0.89      0.00
    3    2   16     -0.39      0.00
    4    2   16      0.45      0.00
    5    2   16     -0.81      0.00
    6    2   16      0.94      0.00
    7    2   16     -0.65      0.00
    8    2   16      0.21      0.00
    9    2   16      0.05      0.00
   10    2   16     -0.10      0.00
   11    2   16      0.10      0.00
  -18    3   16      0.21      0.00
  -17    3   16     -0.31      0.00
  -16    3   16      0.28      0.00
  -15    3   16     -0.18      0.00
  -14    3   16      0.10      0.00
  -13    3   16     -0.07      0.00
  -12    3   16      0.01      0.00
  -11    3   16      0.20      0.00
  -10    3   16     -0.65      0.00
   -9    3   16      1.27      0.00
   -8    3   16     -1.75      0.00
   -7    3   16      1.69      0.00
   -6    3   16     -1.02      0.00
   -5    3   16      0.13      0.00
   -4    3   16      0.40      0.00
   -3    3   16     -0.36      0.00
   -2    3   16      0.03      0.00
   -1    3   16      0.16      0.00
    0    3   16     -0.12      0.00
    1    3   16      0.11      0.00
    2    3   16     -0.36      0.00
    3    3   16      0.75      0.00
    4    3   16     -0.96      0.00
    5    3   16      0.86      0.00
    6    3   16     -0.59      0.00
    7    3   16      0.33      0.00
    8    3   16     -0.12      0.00
    9    3   16     -0.10      0.00
  -16    4   16     -0.16      0.00
  -15    4   16     -0.06      0.00
  -14    4   16      0.48      0.00
  -13    4   16     -0.76      0.00
  -12    4   16      0.60      0.00
  -11    4   16     -0.10      0.00
  -10    4   16     -0.30      0.00
   -9    4   16      0.34      0.00
   -8    4   16     -0.24      0.00
   -7    4   16      0.34      0.00
   -6    4   16     -0.63      0.00
   -5    4   16      0.78      0.00
   -4    4   16     -0.60      0.00
   -3    4   16      0.34      0.00
   -2    4   16     -0.36      0.00
   -1    4   16      0.69      0.00
    0    4   16     -0.99      0.00
    1    4   16      0.98      0.00
    2    4   16     -0.77      0.00
    3    4   16      0.61      0.00
    4    4   16     -0.56      0.00
    5    4   16      0.49      0.00
    6    4   16     -0.28      0.00
    7    4   16      0.01      0.00
  -12    5   16     -0.17      0.00
  -11    5   16      0.17      0.00
  -10    5   16     -0.18      0.00
   -9    5   16      0.15      0.00
   -8    5   16     -0.09      0.00
   -7    5   16      0.17      0.00
   -6    5   16     -0.53      0.00
   -5    5   16      1.03      0.00
   -4    5   16     -1.26      0.00
   -3    5   16      0.94      0.00
   -2    5   16     -0.24      0.00
   -1    5   16     -0.40      0.00
    0    5   16      0.70      0.00
    1    5   16     -0.67      0.00
    2    5   16      0.47      0.00
    3    5   16     -0.19      0.00
    4    5   16     -0.07      0.00
  -19    1   17     -0.17      0.00
  -18    1   17      0.59      0.00
  -17    1   17     -0.75      0.00
  -16    1   17      0.54      0.00
  -15    1   17     -0.08      0.00
  -14    1   17     -0.38      0.00
  -13    1   17      0.69      0.00
  -12    1   17     -0.74      0.00
  -11    1   17      0.59      0.00
  -10    1   17     -0.34      0.00
   -9    1   17      0.17      0.00
   -8    1   17     -0.15      0.00
   -7    1   17      0.21      0.00
   -6    1   17     -0.18      0.00
   -5    1   17     -0.01      0.00
   -4    1   17      0.29      0.00
   -3    1   17     -0.52      0.00
   -2    1   17      0.66      0.00
   -1    1   17     -0.71      0.00
    0    1   17      0.68      0.00
    1    1   17     -0.56      0.00
    2    1   17      0.32      0.00
    3    1   17      0.00      0.00
    4    1   17     -0.29      0.00
    5    1   17      0.41      0.00
    6    1   17     -0.26      0.00
    7    1   17     -0.14      0.00
    8    1   17      0.55      0.00
    9    1   17     -0.69      0.00
   10    1   17      0.47      0.00
  -18    2   17     -0.30      0.00
  -17    2   17      0.25      0.00
  -16    2   17     -0.11      0.00
  -15    2   17      0.08      0.00
  -14    2   17     -0.20      0.00
  -13    2   17      0.29      0.00
  -12    2   17     -0.14      0.00
  -11    2   17     -0.20      0.00
  -10    2   17      0.47      0.00
   -9    2   17     -0.45      0.00
   -8    2   17      0.21      0.00
   -7    2   17     -0.03      0.00
   -6    2   17      0.12      0.00
   -5    2   17     -0.42      0.00
   -4    2   17      0.71      0.00
   -3    2   17     -0.84      0.00
   -2    2   17      0.84      0.00
   -1    2   17     -0.81      0.00
    0    2   17      0.73      0.00
    1    2   17     -0.59      0.00
    2    2   17      0.48      0.00
    3    2   17     -0.59      0.00
    4    2   17      0.93      0.00
    5    2   17     -1.24      0.00
    6    2   17      1.17      0.00
    7    2   17     -0.70      0.00
    8    2   17      0.15      0.00
    9    2   17      0.11      0.00
   10    2   17     -0.06      0.00
  -17    3   17      0.89      0.00
  -16    3   17     -1.15      0.00
  -15    3   17      0.99      0.00
  -14    3   17     -0.46      0.00
  -13    3   17     -0.03      0.00
  -12    3   17      0.06      0.00
  -11    3   17      0.33      0.00
  -10    3   17     -0.63      0.00
   -9    3   17      0.37      0.00
   -8    3   17      0.31      0.00
   -7    3   17     -0.84      0.00
   -6    3   17      0.82      0.00
   -5    3   17     -0.48      0.00
   -4    3   17      0.31      0.00
   -3    3   17     -0.46      0.00
   -2    3   17      0.63      0.00
   -1    3   17     -0.54      0.00
    0    3   17      0.32      0.00
    1    3   17     -0.25      0.00
    2    3   17      0.27      0.00
    3    3   17     -0.09      0.00
    4    3   17     -0.37      0.00
    5    3   17      0.70      0.00
    6    3   17     -0.47      0.00
    7    3   17     -0.20      0.00
    8    3   17      0.72      0.00
  -15    4   17      0.25      0.00
  -14    4   17     -0.17      0.00
  -13    4   17      0.03      0.00
  -12    4   17      0.14      0.00
  -11    4   17     -0.30      0.00
  -10    4   17      0.44      0.00
   -9    4   17     -0.48      0.00
   -8    4   17      0.36      0.00
   -7    4   17     -0.14      0.00
   -6    4   17     -0.06      0.00
   -5    4   17      0.11      0.00
   -4    4   17      0.00      0.00
   -3    4   17     -0.09      0.00
   -2    4   17      0.00      0.00
   -1    4   17      0.28      0.00
    0    4   17     -0.56      0.00
    1    4   17      0.61      0.00
    2    4   17     -0.37      0.00
    3    4   17      0.00      0.00
    4    4   17      0.27      0.00
    5    4   17     -0.34      0.00
    6    4   17      0.26      0.00
  -11    5   17     -0.33      0.00
  -10    5   17      0.29      0.00
   -9    5   17     -0.10      0.00
   -8    5   17     -0.06      0.00
   -7    5   17     -0.08      0.00
   -6    5   17      0.49      0.00
   -5    5   17     -0.81      0.00
   -4    5   17      0.73      0.00
   -3    5   17     -0.38      0.00
   -2    5   17      0.12      0.00
   -1    5   17     -0.09      0.00
    0    5   17      0.15      0.00
    1    5   17     -0.12      0.00
    2    5   17      0.07      0.00
  -19    0   18     -0.82      0.00
  -18    0   18      2.14      0.00
  -17    0   18     -2.76      0.00
  -16    0   18      2.07      0.00
  -15    0   18     -0.58      0.00
  -14    0   18     -0.55      0.00
  -13    0   18      0.69      0.00
  -12    0   18     -0.23      0.00
  -11    0   18     -0.11      0.00
  -10    0   18      0.18      0.00
   -9    0   18     -0.37      0.00
   -8    0   18      0.80      0.00
   -7    0   18     -1.01      0.00
   -6    0   18      0.53      0.00
   -5    0   18      0.37      0.00
   -4    0   18     -0.88      0.00
   -3    0   18      0.55      0.00
   -2    0   18      0.30      0.00
   -1    0   18     -1.04      0.00
    0    0   18      1.39      0.00
    1    0   18     -1.47      0.00
    2    0   18      1.40      0.00
    3    0   18     -1.13      0.00
    4    0   18      0.70      0.00
    5    0   18     -0.32      0.00
    6    0   18      0.13      0.00
    7    0   18     -0.04      0.00
    8    0   18     -0.11      0.00
    9    0   18      0.25      0.00
  -19    1   18     -0.01      0.00
  -18    1   18      0.10      0.00
  -17    1   18     -0.19      0.00
  -16    1   18      0.27      0.00
  -15    1   18     -0.31      0.00
  -14    1   18      0.21      0.00
  -13    1   18      0.04      0.00
  -12    1   18     -0.28      0.00
  -11    1   18      0.26      0.00
  -10    1   18     -0.01      0.00
   -9    1   18     -0.16      0.00
   -8    1   18     -0.05      0.00
   -7    1   18      0.55      0.00
   -6    1   18     -0.83      0.00
   -5    1   18      0.48      0.00
   -4    1   18      0.33      0.00
   -3    1   18     -0.97      0.00
   -2    1   18      0.95      0.00
   -1    1   18     -0.37      0.00
    0    1   18     -0.23      0.00
    1    1   18      0.44      0.00
    2    1   18     -0.30      0.00
    3    1   18      0.11      0.00
    4    1   18     -0.06      0.00
    5    1   18      0.08      0.00
    6    1   18     -0.05      0.00
    7    1   18      0.00      0.00
    8    1   18     -0.05      0.00
    9    1   18      0.19      0.00
  -18    2   18     -0.54      0.00
  -17    2   18      0.61      0.00
  -16    2   18     -0.39      0.00
  -15    2   18      0.16      0.00
  -14    2   18     -0.14      0.00
  -13    2   18      0.25      0.00
  -12    2   18     -0.26      0.00
  -11    2   18      0.09      0.00
  -10    2   18      0.09      0.00
   -9    2   18     -0.10      0.00
   -8    2   18     -0.03      0.00
   -7    2   18      0.16      0.00
   -6    2   18     -0.21      0.00
   -5    2   18      0.21      0.00
   -4    2   18     -0.11      0.00
   -3    2   18     -0.21      0.00
   -2    2   18      0.70      0.00
   -1    2   18     -1.00      0.00
    0    2   18      0.81      0.00
    1    2   18     -0.28      0.00
    2    2   18      0.00      0.00
    3    2   18     -0.38      0.00
    4    2   18      1.17      0.00
    5    2   18     -1.65      0.00
    6    2   18      1.40      0.00
    7    2   18     -0.65      0.00
    8    2   18     -0.03      0.00
  -16    3   18      0.18      0.00
  -15    3   18     -0.16      0.00
  -14    3   18      0.31      0.00
  -13    3   18     -0.57      0.00
  -12    3   18      0.78      0.00
  -11    3   18     -0.77      0.00
  -10    3   18      0.47      0.00
   -9    3   18      0.05      0.00
   -8    3   18     -0.53      0.00
   -7    3   18      0.71      0.00
   -6    3   18     -0.52      0.00
   -5    3   18      0.17      0.00
   -4    3   18      0.09      0.00
   -3    3   18     -0.20      0.00
   -2    3   18      0.30      0.00
   -1    3   18     -0.46      0.00
    0    3   18      0.55      0.00
    1    3   18     -0.37      0.00
    2    3   18     -0.03      0.00
    3    3   18      0.37      0.00
    4    3   18     -0.44      0.00
    5    3   18      0.35      0.00
    6    3   18     -0.31      0.00
    7    3   18      0.40      0.00
  -14    4   18      0.09      0.00
  -13    4   18     -0.26      0.00
  -12    4   18      0.17      0.00
  -11    4   18      0.04      0.00
  -10    4   18     -0.10      0.00
   -9    4   18     -0.04      0.00
   -8    4   18      0.15      0.00
   -7    4   18     -0.02      0.00
   -6    4   18     -0.18      0.00
   -5    4   18      0.14      0.00
   -4    4   18      0.18      0.00
   -3    4   18     -0.47      0.00
   -2    4   18      0.43      0.00
   -1    4   18     -0.13      0.00
    0    4   18     -0.15      0.00
    1    4   18      0.29      0.00
    2    4   18     -0.38      0.00
    3    4   18      0.52      0.00
    4    4   18     -0.62      0.00
   -9    5   18      0.50      0.00
   -8    5   18     -0.56      0.00
   -7    5   18      0.71      0.00
   -6    5   18     -1.01      0.00
   -5    5   18      1.31      0.00
   -4    5   18     -1.33      0.00
   -3    5   18      0.96      0.00
   -2    5   18     -0.40      0.00
   -1    5   18     -0.02      0.00
  -18    1   19      0.64      0.00
  -17    1   19     -0.84      0.00
  -16    1   19      0.64      0.00
  -15    1   19     -0.18      0.00
  -14    1   19     -0.20      0.00
  -13    1   19      0.34      0.00
  -12    1   19     -0.27      0.00
  -11    1   19      0.13      0.00
  -10    1   19     -0.01      0.00
   -9    1   19     -0.09      0.00
   -8    1   19      0.16      0.00
   -7    1   19     -0.10      0.00
   -6    1   19     -0.08      0.00
   -5    1   19      0.26      0.00
   -4    1   19     -0.26      0.00
   -3    1   19      0.04      0.00
   -2    1   19      0.23      0.00
   -1    1   19     -0.31      0.00
    0    1   19      0.18      0.00
    1    1   19      0.01      0.00
    2    1   19     -0.08      0.00
    3    1   19      0.06      0.00
    4    1   19     -0.08      0.00
    5    1   19      0.19      0.00
    6    1   19     -0.25      0.00
    7    1   19      0.14      0.00
    8    1   19      0.07      0.00
  -17    2   19     -0.11      0.00
  -16    2   19      0.26      0.00
  -15    2   19     -0.02      0.00
  -14    2   19     -0.55      0.00
  -13    2   19      0.99      0.00
  -12    2   19     -0.94      0.00
  -11    2   19      0.45      0.00
  -10    2   19      0.05      0.00
   -9    2   19     -0.19      0.00
   -8    2   19      0.03      0.00
   -7    2   19      0.14      0.00
   -6    2   19     -0.11      0.00
   -5    2   19     -0.06      0.00
   -4    2   19      0.19      0.00
   -3    2   19     -0.24      0.00
   -2    2   19      0.28      0.00
   -1    2   19     -0.28      0.00
    0    2   19      0.14      0.00
    1    2   19      0.13      0.00
    2    2   19     -0.27      0.00
    3    2   19      0.07      0.00
    4    2   19      0.40      0.00
    5    2   19     -0.76      0.00
    6    2   19      0.72      0.00
    7    2   19     -0.37      0.00
  -15    3   19      0.37      0.00
  -14    3   19      0.04      0.00
  -13    3   19     -0.37      0.00
  -12    3   19      0.32      0.00
  -11    3   19      0.02      0.00
  -10    3   19     -0.29      0.00
   -9    3   19      0.27      0.00
   -8    3   19     -0.07      0.00
   -7    3   19      0.04      0.00
   -6    3   19     -0.26      0.00
   -5    3   19      0.47      0.00
   -4    3   19     -0.38      0.00
   -3    3   19      0.00      0.00
   -2    3   19      0.34      0.00
   -1    3   19     -0.45      0.00
    0    3   19      0.40      0.00
    1    3   19     -0.38      0.00
    2    3   19      0.34      0.00
    3    3   19     -0.09      0.00
    4    3   19     -0.35      0.00
    5    3   19      0.68      0.00
  -12    4   19      0.12      0.00
  -11    4   19     -0.18      0.00
  -10    4   19      0.23      0.00
   -9    4   19     -0.29      0.00
   -8    4   19      0.25      0.00
   -7    4   19     -0.04      0.00
   -6    4   19     -0.25      0.00
   -5    4   19      0.41      0.00
   -4    4   19     -0.34      0.00
   -3    4   19      0.15      0.00
   -2    4   19     -0.08      0.00
   -1    4   19      0.21      0.00
    0    4   19     -0.37      0.00
    1    4   19      0.34      0.00
    2    4   19     -0.12      0.00
  -17    0   20     -1.49      0.00
  -16    0   20      1.18      0.00
  -15    0   20     -0.50      0.00
  -14    0   20     -0.01      0.00
  -13    0   20      0.07      0.00
  -12    0   20      0.05      0.00
  -11    0   20      0.03      0.00
  -10    0   20     -0.29      0.00
   -9    0   20      0.35      0.00
   -8    0   20      0.00      0.00
   -7    0   20     -0.42      0.00
   -6    0   20      0.37      0.00
   -5    0   20      0.21      0.00
   -4    0   20     -0.77      0.00
   -3    0   20      0.72      0.00
   -2    0   20     -0.02      0.00
   -1    0   20     -0.83      0.00
    0    0   20      1.28      0.00
    1    0   20     -1.16      0.00
    2    0   20      0.76      0.00
    3    0   20     -0.45      0.00
    4    0   20      0.44      0.00
    5    0   20     -0.61      0.00
    6    0   20      0.66      0.00
    7    0   20     -0.41      0.00
  -17    1   20     -0.80      0.00
  -16    1   20      0.74      0.00
  -15    1   20     -0.48      0.00
  -14    1   20      0.12      0.00
  -13    1   20      0.15      0.00
  -12    1   20     -0.13      0.00
  -11    1   20     -0.26      0.00
  -10    1   20      0.83      0.00
   -9    1   20     -1.09      0.00
   -8    1   20      0.73      0.00
   -7    1   20      0.07      0.00
   -6    1   20     -0.70      0.00
   -5    1   20      0.68      0.00
   -4    1   20     -0.17      0.00
   -3    1   20     -0.28      0.00
   -2    1   20      0.33      0.00
   -1    1   20     -0.18      0.00
    0    1   20      0.24      0.00
    1    1   20     -0.58      0.00
    2    1   20      0.81      0.00
    3    1   20     -0.64      0.00
    4    1   20      0.22      0.00
    5    1   20      0.04      0.00
    6    1   20      0.03      0.00
  -16    2   20     -0.14      0.00
  -15    2   20      0.19      0.00
  -14    2   20     -0.60      0.00
  -13    2   20      1.04      0.00
  -12    2   20     -1.06      0.00
  -11    2   20      0.59      0.00
  -10    2   20      0.01      0.00
   -9    2   20     -0.35      0.00
   -8    2   20      0.33      0.00
   -7    2   20     -0.14      0.00
   -6    2   20      0.08      0.00
   -5    2   20     -0.30      0.00
   -4    2   20      0.74      0.00
   -3    2   20     -1.17      0.00
   -2    2   20      1.27      0.00
   -1    2   20     -0.80      0.00
    0    2   20     -0.05      0.00
    1    2   20      0.74      0.00
    2    2   20     -0.71      0.00
    3    2   20     -0.04      0.00
    4    2   20      0.92      0.00
    5    2   20     -1.30      0.00
  -14    3   20      0.07      0.00
  -13    3   20     -0.28      0.00
  -12    3   20      0.53      0.00
  -11    3   20     -0.75      0.00
  -10    3   20      0.86      0.00
   -9    3   20     -0.79      0.00
   -8    3   20      0.54      0.00
   -7    3   20     -0.21      0.00
   -6    3   20     -0.05      0.00
   -5    3   20      0.14      0.00
   -4    3   20     -0.08      0.00
   -3    3   20     -0.09      0.00
   -2    3   20      0.24      0.00
   -1    3   20     -0.24      0.00
    0    3   20      0.05      0.00
    1    3   20      0.22      0.00
    2    3   20     -0.36      0.00
    3    3   20      0.23      0.00
    4    3   20      0.03      0.00
  -10    4   20      0.06      0.00
   -9    4   20     -0.44      0.00
   -8    4   20      0.68      0.00
   -7    4   20     -0.61      0.00
   -6    4   20      0.46      0.00
   -5    4   20     -0.53      0.00
   -4    4   20      0.86      0.00
   -3    4   20     -1.16      0.00
   -2    4   20      1.17      0.00
   -1    4   20     -0.94      0.00
    0    4   20      0.62      0.00
  -16    1   21      0.35      0.00
  -15    1   21     -0.10      0.00
  -14    1   21      0.02      0.00
  -13    1   21     -0.13      0.00
  -12    1   21      0.19      0.00
  -11    1   21     -0.08      0.00
  -10    1   21     -0.08      0.00
   -9    1   21      0.08      0.00
   -8    1   21      0.07      0.00
   -7    1   21     -0.15      0.00
   -6    1   21     -0.03      0.00
   -5    1   21      0.31      0.00
   -4    1   21     -0.41      0.00
   -3    1   21      0.23      0.00
   -2    1   21     -0.01      0.00
   -1    1   21      0.05      0.00
    0    1   21     -0.35      0.00
    1    1   21      0.60      0.00
    2    1   21     -0.56      0.00
    3    1   21      0.28      0.00
    4    1   21     -0.01      0.00
    5    1   21     -0.09      0.00
  -15    2   21     -0.28      0.00
  -14    2   21     -0.26      0.00
  -13    2   21      0.68      0.00
  -12    2   21     -0.67      0.00
  -11    2   21      0.30      0.00
  -10    2   21      0.08      0.00
   -9    2   21     -0.26      0.00
   -8    2   21      0.29      0.00
   -7    2   21     -0.30      0.00
   -6    2   21      0.32      0.00
   -5    2   21     -0.30      0.00
   -4    2   21      0.26      0.00
   -3    2   21     -0.27      0.00
   -2    2   21      0.34      0.00
   -1    2   21     -0.29      0.00
    0    2   21      0.01      0.00
    1    2   21      0.36      0.00
    2    2   21     -0.52      0.00
    3    2   21      0.32      0.00
    4    2   21      0.04      0.00
  -12    3   21      0.04      0.00
  -11    3   21     -0.01      0.00
  -10    3   21     -0.04      0.00
   -9    3   21      0.07      0.00
   -8    3   21     -0.14      0.00
   -7    3   21      0.33      0.00
   -6    3   21     -0.58      0.00
   -5    3   21      0.72      0.00
   -4    3   21     -0.59      0.00
   -3    3   21      0.26      0.00
   -2    3   21      0.07      0.00
   -1    3   21     -0.22      0.00
    0    3   21      0.23      0.00
    1    3   21     -0.24      0.00
   -6    4   21     -0.73      0.00
   -5    4   21      0.91      0.00
  -15    0   22     -0.21      0.00
  -14    0   22      0.19      0.00
  -13    0   22     -0.21      0.00
  -12    0   22      0.11      0.00
  -11    0   22      0.29      0.00
  -10    0   22     -0.86      0.00
   -9    0   22      1.12      0.00
   -8    0   22     -0.79      0.00
   -7    0   22      0.13      0.00
   -6    0   22      0.25      0.00
   -5    0   22     -0.06      0.00
   -4    0   22     -0.30      0.00
   -3    0   22      0.23      0.00
   -2    0   22      0.38      0.00
   -1    0   22     -0.98      0.00
    0    0   22      0.98      0.00
    1    0   22     -0.40      0.00
    2    0   22     -0.18      0.00
    3    0   22      0.22      0.00
  -14    1   22     -0.18      0.00
  -13    1   22      0.34      0.00
  -12    1   22     -0.22      0.00
  -11    1   22     -0.24      0.00
  -10    1   22      0.83      0.00
   -9    1   22     -1.15      0.00
   -8    1   22      0.94      0.00
   -7    1   22     -0.33      0.00
   -6    1   22     -0.27      0.00
   -5    1   22      0.58      0.00
   -4    1   22     -0.65      0.00
   -3    1   22      0.63      0.00
   -2    1   22     -0.52      0.00
   -1    1   22      0.17      0.00
    0    1   22      0.41      0.00
    1    1   22     -0.89      0.00
    2    1   22      0.92      0.00
    3    1   22     -0.56      0.00
  -13    2   22      0.82      0.00
  -12    2   22     -0.83      0.00
  -11    2   22      0.34      0.00
  -10    2   22      0.23      0.00
   -9    2   22     -0.43      0.00
   -8    2   22      0.22      0.00
   -7    2   22      0.05      0.00
   -6    2   22     -0.03      0.00
   -5    2   22     -0.35      0.00
   -4    2   22      0.89      0.00
   -3    2   22     -1.27      0.00
   -2    2   22      1.21      0.00
   -1    2   22     -0.70      0.00
    0    2   22      0.03      0.00
    1    2   22      0.40      0.00
  -10    3   22      0.45      0.00
   -9    3   22     -0.71      0.00
   -8    3   22      0.65      0.00
   -7    3   22     -0.31      0.00
   -6    3   22     -0.09      0.00
   -5    3   22      0.26      0.00
   -4    3   22     -0.18      0.00
   -3    3   22      0.01      0.00
   -2    3   22      0.00      0.00
  -13    1   23     -0.25      0.00
  -12    1   23      0.39      0.00
  -11    1   23     -0.20      0.00
  -10    1   23     -0.12      0.00
   -9    1   23      0.23      0.00
   -8    1   23     -0.12      0.00
   -7    1   23      0.00      0.00
   -6    1   23     -0.08      0.00
   -5    1   23      0.23      0.00
   -4    1   23     -0.23      0.00
   -3    1   23      0.03      0.00
   -2    1   23      0.13      0.00
   -1    1   23     -0.04      0.00
    0    1   23     -0.26      0.00
  -11    2   23     -0.20      0.00
  -10    2   23      0.36      0.00
   -9    2   23     -0.49      0.00
   -8    2   23      0.60      0.00
   -7    2   23     -0.62      0.00
   -6    2   23      0.47      0.00
   -5    2   23     -0.22      0.00
   -4    2   23      0.08      0.00
   -3    2   23     -0.18      0.00
   -2    2   23      0.38      0.00
   -1    2   23     -0.43      0.00
  -10    0   24     -0.83      0.00
   -9    0   24      1.19      0.00
   -8    0   24     -1.02      0.00
   -7    0   24      0.49      0.00
   -6    0   24     -0.08      0.00
   -5    0   24      0.03      0.00
   -4    0   24     -0.10      0.00
   -3    0   24     -0.08      0.00
   -2    0   24      0.50      0.00
   -9    1   24     -0.38      0.00
   -8    1   24      0.51      0.00
   -7    1   24     -0.47      0.00
   -6    1   24      0.29      0.00
   -5    1   24     -0.03      0.00
   -4    1   24     -0.25      0.00
   -3    1   24      0.42      0.00
   21    2    0      0.20      0.00
   20    3    0     -0.28      0.00
  -14    6    1     -0.40      0.00
    9    7    1      0.41      0.00
  -22    0    2      0.32      0.00
   21    0    2     -1.32      0.00
  -22    1    2      0.05      0.00
   21    1    2     -0.15      0.00
  -19    4    2      0.69      0.00
   18    4    2      0.81      0.00
  -17    5    2     -0.64      0.00
   16    5    2      0.03      0.00
  -14    6    2      0.40      0.00
   13    6    2     -0.40      0.00
  -22    1    3     -0.04      0.00
   20    2    3      0.55      0.00
   19    3    3      0.64      0.00
    8    7    3      0.08      0.00
   15    5    4      0.36      0.00
    7    7    5      0.14      0.00
   14    5    6     -0.69      0.00
   11    6    6     -0.47      0.00
   -9    7    6      0.19      0.00
    6    7    6     -0.29      0.00
  -14    6    7     -0.56      0.00
   -9    7    7      0.19      0.00
    5    7    7      0.02      0.00
   15    4    8     -0.23      0.00
  -17    5    8     -0.37      0.00
   13    5    8      0.45      0.00
  -14    6    8     -0.26      0.00
   -8    7    8     -0.12      0.00
    4    7    8     -0.13      0.00
   17    2    9      0.34      0.00
   16    3    9     -1.03      0.00
  -17    5    9      0.40      0.00
   12    5    9      0.30      0.00
    9    6    9     -0.30      0.00
   -7    7    9      0.05      0.00
   17    1   10      0.42      0.00
  -19    4   10      0.05      0.00
  -13    6   10     -0.29      0.00
    8    6   10     -0.67      0.00
   -6    7   10     -0.07      0.00
   -5    7   10      0.05      0.00
    0    7   10     -0.18      0.00
  -22    1   11      0.41      0.00
   13    4   11      0.91      0.00
    7    6   11     -0.23      0.00
  -22    0   12     -0.13      0.00
   15    2   12     -0.41      0.00
   12    4   12     -0.33      0.00
  -16    5   12      0.48      0.00
  -12    6   12      0.37      0.00
  -21    2   13     -0.50      0.00
   14    2   13      0.50      0.00
   13    3   13      0.10      0.00
  -18    4   13      0.32      0.00
  -11    6   13      0.02      0.00
    4    6   13     -0.39      0.00
   14    1   14      0.55      0.00
   12    3   14      0.16      0.00
  -10    6   14      0.02      0.00
  -21    1   15      0.14      0.00
   13    1   15      0.75      0.00
  -19    3   15      0.32      0.00
   11    3   15      0.49      0.00
  -17    4   15     -0.17      0.00
    9    4   15      0.04      0.00
  -14    5   15      0.15      0.00
    6    5   15     -0.10      0.00
   -8    6   15     -0.82      0.00
    0    6   15      0.40      0.00
   12    1   16      0.15      0.00
   10    3   16      0.26      0.00
    8    4   16      0.16      0.00
  -13    5   16      0.16      0.00
  -20    1   17     -0.20      0.00
   11    1   17     -0.05      0.00
  -19    2   17      0.13      0.00
    9    3   17     -0.68      0.00
   10    0   18     -0.21      0.00
   10    1   18     -0.29      0.00
    9    2   18      0.30      0.00
  -17    3   18     -0.29      0.00
    5    4   18      0.53      0.00
    0    5   18      0.15      0.00
  -16    3   19     -0.54      0.00
    6    3   19     -0.63      0.00
  -13    4   19      0.01      0.00
    3    4   19     -0.12      0.00
  -18    0   20      1.15      0.00
    7    1   20     -0.22      0.00
    6    2   20      1.03      0.00
  -11    4   20      0.15      0.00
    1    4   20     -0.33      0.00
  -13    3   21      0.00      0.00
    2    3   21      0.26      0.00
   -8    4   21     -0.06      0.00
   -7    4   21      0.36      0.00
   -4    4   21     -0.76      0.00
   -3    4   21      0.42      0.00
    4    0   22      0.22      0.00
  -15    1   22     -0.06      0.00
  -14    2   22     -0.29      0.00
    2    2   22     -0.36      0.00
  -11    3   22     -0.09      0.00
   -1    3   22      0.22      0.00
    1    1   23      0.51      0.00
  -11    0   24      0.23      0.00
   -1    0   24     -0.67      0.00
  -10    1   24      0.10      0.00
   -2    1   24     -0.32      0.00
    0    0    0      0.00      0.00
# SQUEEZE RESULTS (Version = 201118)
# Note: Data are Listed for all Voids in the P1 Unit Cell
# i.e. Centre of Gravity, Solvent Accessible Volume,
# Recovered number of Electrons in the Void and
# Details about the Squeezed Material
loop_
  _platon_squeeze_void_nr
  _platon_squeeze_void_average_x
  _platon_squeeze_void_average_y
  _platon_squeeze_void_average_z
  _platon_squeeze_void_volume
  _platon_squeeze_void_count_electrons
  _platon_squeeze_void_content
   1  0.500 -0.031  0.500       196        46 ' '
   2  0.500 -0.025  0.000       196        46 ' '
_platon_squeeze_void_probe_radius                  1.20
_platon_squeeze_details
)
TITL gellman186       P 1 21/c 1   R = 0.12
CELL   17.9970    6.1519   19.6360     90.00    106.55     90.00
SPGR P21/c
# Solvent Accessible Volume =       388
# Electrons Found in S.A.V. =        92
# Note: Atoms in Void are Labelled as Cxxx and Qxxx for all Others
Q101 0.407 0.962 0.229 !       2.08 eA-3
C102 0.430 0.551 0.078 !       1.57 eA-3
C103 0.387 0.614 0.563 !       1.43 eA-3
C104 0.477 0.605 0.047 !       1.15 eA-3
C105 0.486 0.320 0.483 !       1.04 eA-3
C106 0.458 0.309-0.002 !       1.01 eA-3
C107 0.471 0.471 0.500 !       0.93 eA-3
C108 0.420 0.237 0.000 !       0.90 eA-3
C109 0.507 0.217 0.467 !       0.81 eA-3
Q110 0.835 0.817 0.374 !       0.77 eA-3
C111 0.605 0.570 0.465 !       0.70 eA-3
Q112 0.960 0.312 0.843 !       0.63 eA-3
Q113 0.006 0.823 0.109 !       0.60 eA-3
Q114 0.214 0.392 0.125 !       0.57 eA-3
C115 0.365 0.371 0.013 !       0.57 eA-3
Q116 0.924 0.251 0.048 !       0.56 eA-3
Q117 0.194 0.336 0.360 !       0.54 eA-3
Q118 0.725 0.926 0.338 !       0.54 eA-3
Q119 1.000 0.426 0.810 !       0.54 eA-3
Q120 0.917 0.953 0.097 !       0.53 eA-3
Q121 0.202 0.577 0.326 !       0.53 eA-3
Q122 0.659 0.795 0.091 !       0.52 eA-3
Q123 0.807 0.034 0.435 !       0.52 eA-3
Q124 0.202 0.185 0.184 !       0.52 eA-3
)
;
_shelx_fab_checksum                98347
_platon_squeeze_details            ?
_platon_squeeze_special_details    ?
loop_
  _platon_squeeze_void_nr
  _platon_squeeze_void_average_x
  _platon_squeeze_void_average_y
  _platon_squeeze_void_average_z
  _platon_squeeze_void_volume
  _platon_squeeze_void_count_electrons
  _platon_squeeze_void_content
 1 0.500 -0.031 0.500 196 46 ' '
 2 0.500 -0.025 0.000 196 46 ' '

_platon_squeeze_void_probe_radius  1.20
_olex2_submission_special_instructions  'No special instructions were received'
loop_
  _twin_individual_id
  _twin_individual_mass_fraction_refined
 1 0.700(3)
 2 0.300(3)

_vrf_DIFMX02_gellman186_sq
;
PROBLEM: The maximum difference density is > 0.1*ZMAX*0.75
RESPONSE: The maximum peak (ca. 1.87 electons/\%A^3^) is 0.90 
\%A from atom Cl1 in a chemically unreasonable position and was 
considered noise. 
;
_vrf_PLAT084_gellman186_sq
;
PROBLEM: High wR2 Value (i.e. > 0.25) ...................       0.27 Report
RESPONSE: Due to the lower than usual data quality resulting from the 
challenging (twinned) nature of the crystal and the need to process the data 
with SQUEEZE, this was the best attainable wR2 value for a chemically 
reasonable model of the structure.
;
_vrf_PLAT094_gellman186_sq
;
PROBLEM: Ratio of Maximum / Minimum Residual Density ....       3.16 Report
RESPONSE: The large ratio is due to a feature in the difference Fourier 
map: the maximum peak (ca. 1.87 electrons/\%A^3^) is 0.90 \%A 
from atom Cl1 in a chemically unreasonable position that was considered noise. 
;
_vrf_PLAT340_gellman186_sq
;
PROBLEM: Low Bond Precision on  C-C Bonds ...............    0.00732 Ang.  
RESPONSE: Due to the lower than usual data quality resulting from the 
challenging (twinned) nature of the crystal and the need to process the data 
with SQUEEZE, this was the best attainable precision for a chemically 
reasonable model of the structure.
;
_vrf_PLAT906_gellman186_sq
;
PROBLEM: Large K Value in the Analysis of Variance ......      2.443 Check 
RESPONSE: Usually data integration algorithms underestimate the 
background and produces slightly elevated values of Fo, resulting in 
higher Fo/Fc values. These are most pronounced for the weakest intensities.
;
