@<TRIPOS>MOLECULE
output_1
   40    42     0     0     0
SMALL
USER_CHARGES

@<TRIPOS>ATOM
      1 N1         39.6300   36.0400   32.9300 N.3       1 MOL1       -0.9005
      2 C1         33.5000   37.9000   37.3400 C.ar      1 MOL1       -0.0860
      3 C2         33.9400   38.5700   36.1800 C.ar      1 MOL1       -0.1750
      4 C3         34.1900   37.8100   35.0100 C.ar      1 MOL1       -0.0860
      5 C4         34.0200   36.4200   35.0200 C.ar      1 MOL1       -0.1277
      6 C5         33.6000   35.7300   36.1800 C.ar      1 MOL1        0.0003
      7 C6         33.3400   36.5000   37.3400 C.ar      1 MOL1       -0.1277
      8 C7         33.3800   34.2500   36.1700 C.ar      1 MOL1       -0.0360
      9 C8         34.2700   33.3000   35.4800 C.ar      1 MOL1       -0.0183
     10 C9         33.8900   31.9300   35.4300 C.ar      1 MOL1       -0.1236
     11 C10        32.7200   31.4800   36.0500 C.ar      1 MOL1       -0.1199
     12 C11        31.8900   32.3800   36.7400 C.ar      1 MOL1       -0.1276
     13 C12        32.2100   33.7400   36.7900 C.ar      1 MOL1       -0.1173
     14 C13        35.5900   33.6600   34.8900 C.ar      1 MOL1       -0.0463
     15 C14        36.5200   34.4400   35.6200 C.ar      1 MOL1       -0.1160
     16 C15        37.7900   34.7500   35.0900 C.ar      1 MOL1       -0.1256
     17 C16        38.1500   34.3000   33.8100 C.ar      1 MOL1       -0.1257
     18 C17        37.2300   33.5300   33.0600 C.ar      1 MOL1       -0.1256
     19 C18        35.9700   33.2100   33.6000 C.ar      1 MOL1       -0.1160
     20 C19        39.5200   34.6100   33.2400 C.3       1 MOL1        0.1940
     21 C20        34.0900   40.0700   36.2300 C.2       1 MOL1        0.6407
     22 O1         34.8700   40.5800   35.2600 O.3       1 MOL1       -0.5770
     23 O2         33.5800   40.7700   37.0700 O.2       1 MOL1       -0.4891
     24 H1         39.4600   36.5700   33.7900 H         1 MOL1        0.3475
     25 H2         39.6900   34.0200   32.3300 H         1 MOL1        0.0609
     26 H3         33.2900   38.4600   38.2500 H         1 MOL1        0.1467
     27 H4         34.4800   38.2900   34.0800 H         1 MOL1        0.1467
     28 H5         34.2000   35.8600   34.1100 H         1 MOL1        0.1472
     29 H6         33.0100   36.0100   38.2500 H         1 MOL1        0.1472
     30 H7         34.5400   31.2100   34.9400 H         1 MOL1        0.1399
     31 H8         32.4600   30.4200   36.0100 H         1 MOL1        0.1378
     32 H9         30.9800   32.0200   37.2200 H         1 MOL1        0.1372
     33 H10        31.5300   34.4200   37.2900 H         1 MOL1        0.1377
     34 H11        36.2600   34.7900   36.6100 H         1 MOL1        0.1398
     35 H12        38.4900   35.3400   35.6700 H         1 MOL1        0.1352
     36 H13        37.5000   33.1700   32.0700 H         1 MOL1        0.1352
     37 H14        35.2800   32.6200   33.0200 H         1 MOL1        0.1398
     38 H15        40.2900   34.3200   33.9700 H         1 MOL1        0.0609
     39 H16        38.8800   36.2900   32.3000 H         1 MOL1        0.3475
     40 H17        35.2200   39.7900   34.8400 H         1 MOL1        0.4249
@<TRIPOS>BOND
     1   18   36 1
     2    1   39 1
     3   20   25 1
     4    1   20 1
     5    1   24 1
     6   19   37 1
     7   18   19 ar
     8   17   18 ar
     9   17   20 1
    10   20   38 1
    11   14   19 ar
    12   16   17 ar
    13    4   27 1
    14    5   28 1
    15   22   40 1
    16    9   14 1
    17   14   15 ar
    18   10   30 1
    19    4    5 ar
    20    3    4 ar
    21    5    6 ar
    22   15   16 ar
    23   16   35 1
    24   21   22 1
    25    9   10 ar
    26   10   11 ar
    27    8    9 ar
    28   15   34 1
    29   11   31 1
    30   11   12 ar
    31    6    8 1
    32    8   13 ar
    33    3   21 1
    34    2    3 ar
    35    6    7 ar
    36   21   23 2
    37   12   13 ar
    38   12   32 1
    39   13   33 1
    40    2    7 ar
    41    2   26 1
    42    7   29 1
