@<TRIPOS>MOLECULE
output_1
   43    45     0     0     0
SMALL
USER_CHARGES

@<TRIPOS>ATOM
      1 N1         32.3100   35.4400   40.6600 N.3       1 MOL1       -0.9073
      2 C1         32.3700   35.5600   39.2000 C.3       1 MOL1        0.2008
      3 C2         33.7800   35.2900   38.7100 C.ar      1 MOL1       -0.1299
      4 C3         34.7100   36.3400   38.6200 C.ar      1 MOL1       -0.1251
      5 C4         36.0100   36.0900   38.1700 C.ar      1 MOL1       -0.1167
      6 C5         34.1700   33.9900   38.3500 C.ar      1 MOL1       -0.1251
      7 C6         35.4700   33.7400   37.9100 C.ar      1 MOL1       -0.1167
      8 C7         36.4200   34.7900   37.8000 C.ar      1 MOL1       -0.0434
      9 C8         37.8100   34.5200   37.3100 C.ar      1 MOL1       -0.0173
     10 C9         38.5200   33.4600   37.9200 C.ar      1 MOL1       -0.1225
     11 C10        39.8600   33.2000   37.5900 C.ar      1 MOL1       -0.1233
     12 C11        40.5200   34.0000   36.6400 C.ar      1 MOL1       -0.1279
     13 C12        39.8400   35.0500   36.0000 C.ar      1 MOL1       -0.1188
     14 C13        38.4900   35.3400   36.2900 C.ar      1 MOL1       -0.0345
     15 C14        37.8100   36.4000   35.4800 C.ar      1 MOL1       -0.0041
     16 C15        36.4900   36.2300   35.0000 C.ar      1 MOL1       -0.1369
     17 C16        35.8600   37.2100   34.2200 C.ar      1 MOL1       -0.0726
     18 C17        38.4800   37.6000   35.1300 C.ar      1 MOL1       -0.1369
     19 C18        37.8600   38.5800   34.3400 C.ar      1 MOL1       -0.0726
     20 C19        36.5400   38.3900   33.8600 C.ar      1 MOL1       -0.1364
     21 C20        35.8700   39.4100   32.9800 C.2       1 MOL1        0.6445
     22 C21        36.1400   41.4300   31.7000 C.3       1 MOL1        0.1270
     23 O1         34.7000   39.3000   32.6300 O.2       1 MOL1       -0.5438
     24 O2         36.6800   40.4400   32.6000 O.3       1 MOL1       -0.4392
     25 H1         32.6500   34.5200   40.9200 H         1 MOL1        0.3505
     26 H2         32.9900   36.0900   41.0600 H         1 MOL1        0.3505
     27 H3         32.0500   36.5700   38.8900 H         1 MOL1        0.0614
     28 H4         31.6700   34.8500   38.7400 H         1 MOL1        0.0614
     29 H5         34.4200   37.3500   38.9000 H         1 MOL1        0.1343
     30 H6         36.7200   36.9100   38.1000 H         1 MOL1        0.1389
     31 H7         33.4500   33.1700   38.4200 H         1 MOL1        0.1343
     32 H8         35.7600   32.7300   37.6200 H         1 MOL1        0.1389
     33 H9         38.0400   32.8600   38.6800 H         1 MOL1        0.1377
     34 H10        40.3900   32.3900   38.0800 H         1 MOL1        0.1352
     35 H11        41.5600   33.7900   36.3900 H         1 MOL1        0.1362
     36 H12        40.3600   35.6200   35.2400 H         1 MOL1        0.1381
     37 H13        35.9500   35.3200   35.2400 H         1 MOL1        0.1469
     38 H14        34.8500   37.0500   33.8600 H         1 MOL1        0.1569
     39 H15        39.4900   37.7700   35.4900 H         1 MOL1        0.1469
     40 H16        38.4100   39.4800   34.0800 H         1 MOL1        0.1569
     41 H17        35.8100   40.9500   30.7600 H         1 MOL1        0.0514
     42 H18        36.9100   42.1700   31.4600 H         1 MOL1        0.0514
     43 H19        35.2900   41.9400   32.1600 H         1 MOL1        0.0514
@<TRIPOS>BOND
     1   22   41 1
     2   22   42 1
     3   22   43 1
     4   22   24 1
     5   21   24 1
     6   21   23 2
     7   20   21 1
     8   17   20 ar
     9   19   20 ar
    10   17   38 1
    11   19   40 1
    12   16   17 ar
    13   18   19 ar
    14   16   37 1
    15   15   16 ar
    16   15   18 ar
    17   18   39 1
    18   13   36 1
    19   14   15 1
    20   13   14 ar
    21   12   13 ar
    22    9   14 ar
    23   12   35 1
    24   11   12 ar
    25    8    9 1
    26    9   10 ar
    27   10   11 ar
    28   11   34 1
    29    7   32 1
    30    7    8 ar
    31    5    8 ar
    32    6    7 ar
    33   10   33 1
    34    5   30 1
    35    4    5 ar
    36    6   31 1
    37    3    6 ar
    38    3    4 ar
    39    4   29 1
    40    2    3 1
    41    2   28 1
    42    2   27 1
    43    1    2 1
    44    1   25 1
    45    1   26 1
