@<TRIPOS>MOLECULE
MOL
   43    45     1     0     0
SMALL
bcc


@<TRIPOS>ATOM
      1 N           10.3860     2.5300    10.7310 n3         1 MOL      -0.900800
      2 C           10.3730     2.6510     9.3030 c3         1 MOL       0.194100
      3 C1          11.8150     2.4420     8.7040 ca         1 MOL      -0.124300
      4 C2          12.8080     3.4560     8.7150 ca         1 MOL      -0.126000
      5 C3          14.1470     3.2310     8.1730 ca         1 MOL      -0.113000
      6 C4          12.1820     1.2190     8.1530 ca         1 MOL      -0.126000
      7 C5          13.5070     1.0150     7.6100 ca         1 MOL      -0.113000
      8 C6          14.5110     2.0140     7.6180 cp         1 MOL      -0.045000
      9 C7          15.9720     1.7610     7.1450 cp         1 MOL      -0.020000
     10 C8          16.6890     0.7550     7.7430 ca         1 MOL      -0.122000
     11 C9          18.0910     0.5000     7.4350 ca         1 MOL      -0.124000
     12 C10         18.7710     1.2780     6.5080 ca         1 MOL      -0.128000
     13 C11         18.0740     2.2680     5.8780 ca         1 MOL      -0.117000
     14 C12         16.6560     2.5310     6.1870 cq         1 MOL      -0.037000
     15 C13         15.9560     3.5870     5.4410 cq         1 MOL      -0.003000
     16 C14         14.5990     3.4150     5.0100 ca         1 MOL      -0.135000
     17 C15         13.9910     4.3960     4.2730 ca         1 MOL      -0.073000
     18 C16         16.6740     4.7460     5.0820 ca         1 MOL      -0.135000
     19 C17         16.0800     5.7340     4.3250 ca         1 MOL      -0.073000
     20 C18         14.7220     5.5310     3.9200 ca         1 MOL      -0.134600
     21 C19         14.0630     6.5200     3.0590 c          1 MOL       0.644700
     22 C20         14.3780     8.3280     1.6360 c3         1 MOL       0.127700
     23 O           12.8460     6.5270     2.8700 o          1 MOL      -0.543000
     24 O1          14.9600     7.3880     2.5310 os         1 MOL      -0.440900
     25 H           10.8590     1.7780    10.9430 hn         1 MOL       0.347800
     26 H1          10.8120     3.2580    11.0610 hn         1 MOL       0.347800
     27 H2          10.0290     3.5490     9.0710 h1         1 MOL       0.060700
     28 H3           9.7280     1.9770     8.9630 h1         1 MOL       0.060700
     29 H4          12.5790     4.2980     9.0880 ha         1 MOL       0.134000
     30 H5          14.8200     3.9270     8.1870 ha         1 MOL       0.138500
     31 H6          11.5180     0.5150     8.1490 ha         1 MOL       0.134000
     32 H7          13.7330     0.1770     7.2230 ha         1 MOL       0.138500
     33 H8          16.2150     0.2250     8.3790 ha         1 MOL       0.139000
     34 H9          18.5700    -0.1950     7.8530 ha         1 MOL       0.135000
     35 H10         19.7330     1.1290     6.3060 ha         1 MOL       0.136000
     36 H11         18.5510     2.7760     5.2280 ha         1 MOL       0.138000
     37 H12         14.0940     2.6230     5.2220 ha         1 MOL       0.145500
     38 H13         13.0620     4.2820     4.0100 ha         1 MOL       0.157000
     39 H14         17.5960     4.8700     5.3580 ha         1 MOL       0.145500
     40 H15         16.5850     6.5200     4.0920 ha         1 MOL       0.157000
     41 H16         14.0460     7.8420     0.8930 h1         1 MOL       0.051367
     42 H17         15.0990     8.9700     1.3520 h1         1 MOL       0.051367
     43 H18         13.5970     8.8080     2.0610 h1         1 MOL       0.051367
@<TRIPOS>BOND
     1     1     2 1   
     2     1    25 1   
     3     1    26 1   
     4     2     3 1   
     5     2    27 1   
     6     2    28 1   
     7     3     4 ar  
     8     3     6 ar  
     9     4     5 ar  
    10     4    29 1   
    11     5     8 ar  
    12     5    30 1   
    13     6     7 ar  
    14     6    31 1   
    15     7     8 ar  
    16     7    32 1   
    17     8     9 1   
    18     9    10 ar  
    19     9    14 2   
    20    10    11 ar  
    21    10    33 1   
    22    11    12 ar  
    23    11    34 1   
    24    12    13 ar  
    25    12    35 1   
    26    13    14 1   
    27    13    36 1   
    28    14    15 1   
    29    15    16 1   
    30    15    18 2   
    31    16    17 ar  
    32    16    37 1   
    33    17    20 ar  
    34    17    38 1   
    35    18    19 ar  
    36    18    39 1   
    37    19    20 ar  
    38    19    40 1   
    39    20    21 1   
    40    21    23 2   
    41    21    24 1   
    42    22    24 1   
    43    22    41 1   
    44    22    42 1   
    45    22    43 1   
@<TRIPOS>SUBSTRUCTURE
     1 MOL         1 TEMP              0 ****  ****    0 ROOT
