@<TRIPOS>MOLECULE
output_1
  188   202     0     0     0
SMALL
USER_CHARGES

@<TRIPOS>ATOM
      1 N1         34.5700   40.6500   39.9500 N.am      1 PEN1       -0.5593
      2 N2         38.4800   41.5000   42.4600 N.am      1 PEN1       -0.5550
      3 N3         41.0300   38.2900   37.3900 N.am      1 PEN1       -0.5601
      4 N4         44.3600   37.1700   41.0700 N.am      1 PEN1       -0.5640
      5 N5         40.9600   41.9200   46.9200 N.3       1 PEN1       -0.9011
      6 C1         39.3900   36.0100   38.9100 C.ar      1 PEN1       -0.1158
      7 C2         37.9700   44.1000   35.7100 C.ar      1 PEN1       -0.0258
      8 C3         41.0200   36.8400   37.1700 C.3       1 PEN1        0.1292
      9 C4         39.7100   36.1600   37.5500 C.ar      1 PEN1       -0.1209
     10 C5         34.6500   42.1100   40.0900 C.3       1 PEN1        0.1324
     11 C6         38.8100   40.6400   34.3200 C.ar      1 PEN1       -0.1299
     12 C7         37.1300   43.6800   36.8600 C.ar      1 PEN1       -0.0452
     13 C8         35.0900   34.2300   38.7900 C.ar      1 PEN1       -0.0434
     14 C9         38.3100   39.3300   34.2400 C.ar      1 PEN1       -0.0874
     15 C10        35.1600   38.0400   38.7600 C.ar      1 PEN1       -0.0934
     16 C11        36.4500   33.5800   38.7600 C.ar      1 PEN1       -0.0184
     17 C12        39.9000   44.9000   33.7900 C.ar      1 PEN1       -0.1249
     18 C13        35.5200   42.7000   38.9900 C.ar      1 PEN1       -0.1236
     19 C14        36.0800   40.1400   34.7400 C.ar      1 PEN1       -0.0874
     20 C15        38.2900   35.2200   39.2800 C.ar      1 PEN1       -0.1192
     21 C16        36.5800   41.4500   34.8100 C.ar      1 PEN1       -0.1299
     22 C17        35.4900   37.2900   41.0500 C.ar      1 PEN1       -0.0934
     23 C18        36.7900   42.1500   38.7400 C.ar      1 PEN1       -0.1205
     24 C19        37.5700   42.6300   37.6900 C.ar      1 PEN1       -0.1177
     25 C20        34.1100   32.0100   38.8900 C.ar      1 PEN1       -0.1296
     26 C21        39.4400   43.5800   33.7800 C.ar      1 PEN1       -0.1131
     27 C22        37.7800   34.8000   36.9600 C.ar      1 PEN1       -0.1192
     28 C23        37.4800   34.5900   38.3200 C.ar      1 PEN1       -0.0424
     29 C24        35.8700   44.2700   37.1500 C.ar      1 PEN1       -0.1177
     30 C25        35.3800   31.4100   38.7200 C.ar      1 PEN1       -0.1245
     31 C26        35.3400   38.3500   40.1300 C.ar      1 PEN1       -0.1524
     32 C27        38.4400   45.4300   35.6700 C.ar      1 PEN1       -0.1184
     33 C28        35.1000   36.7000   38.3400 C.ar      1 PEN1       -0.1217
     34 C29        36.9400   39.0600   34.4500 C.ar      1 PEN1       -0.1743
     35 C30        38.8900   35.5700   36.5800 C.ar      1 PEN1       -0.1158
     36 C31        36.5500   32.1900   38.6300 C.ar      1 PEN1       -0.1159
     37 C32        33.9600   33.4100   38.9500 C.ar      1 PEN1       -0.1157
     38 C33        35.4100   39.7700   40.5900 C.2       1 PEN1        0.6807
     39 C34        35.0700   43.7800   38.2000 C.ar      1 PEN1       -0.1205
     40 C35        39.4000   45.8300   34.7200 C.ar      1 PEN1       -0.1136
     41 C36        38.4700   43.1400   34.7100 C.ar      1 PEN1       -0.0497
     42 C37        35.4200   35.9600   40.6200 C.ar      1 PEN1       -0.1217
     43 C38        37.9500   41.7300   34.6100 C.ar      1 PEN1        0.0045
     44 C39        35.2400   35.6400   39.2600 C.ar      1 PEN1       -0.0060
     45 C40        38.3900   42.9600   42.3200 C.3       1 PEN1        0.1354
     46 C41        42.0100   38.9200   38.1200 C.2       1 PEN1        0.6785
     47 C42        39.6300   44.9100   39.2600 C.ar      1 PEN1       -0.1187
     48 C43        38.7800   44.3100   40.2100 C.ar      1 PEN1       -0.1209
     49 C44        39.3100   43.5300   41.2500 C.ar      1 PEN1       -0.1002
     50 C45        40.7100   43.3900   41.3500 C.ar      1 PEN1       -0.1209
     51 C46        41.5500   44.0100   40.4200 C.ar      1 PEN1       -0.1187
     52 C47        41.0300   44.7600   39.3400 C.ar      1 PEN1       -0.0434
     53 C48        43.5500   45.3100   36.5200 C.ar      1 PEN1       -0.1162
     54 C49        43.6600   46.7200   36.5200 C.ar      1 PEN1       -0.1326
     55 C50        42.9100   47.5200   37.4100 C.ar      1 PEN1       -0.1281
     56 C51        42.0400   46.9600   38.3600 C.ar      1 PEN1       -0.1184
     57 C52        41.9100   45.5600   38.4200 C.ar      1 PEN1       -0.0156
     58 C53        42.6600   44.7000   37.4300 C.ar      1 PEN1       -0.0377
     59 C54        43.4500   42.4400   38.1900 C.ar      1 PEN1       -0.1279
     60 C55        42.4300   43.2400   37.6500 C.ar      1 PEN1       -0.0078
     61 C56        41.2600   42.5900   37.2000 C.ar      1 PEN1       -0.1279
     62 C57        41.0900   41.2000   37.3500 C.ar      1 PEN1       -0.0918
     63 C58        42.1100   40.4200   37.9500 C.ar      1 PEN1       -0.1444
     64 C59        43.3000   41.0600   38.3500 C.ar      1 PEN1       -0.0918
     65 C60        46.6100   40.0300   41.6900 C.ar      1 PEN1       -0.0897
     66 C61        38.9900   38.7600   44.8900 C.ar      1 PEN1       -0.0782
     67 C62        38.9100   39.3800   43.6300 C.ar      1 PEN1       -0.1368
     68 C63        38.6900   38.5700   42.4900 C.ar      1 PEN1       -0.0782
     69 C64        38.5300   37.1800   42.6300 C.ar      1 PEN1       -0.1349
     70 C65        38.5900   36.5500   43.8900 C.ar      1 PEN1       -0.0146
     71 C66        38.8100   37.3700   45.0200 C.ar      1 PEN1       -0.1349
     72 C67        38.2900   35.0900   44.1400 C.ar      1 PEN1       -0.0399
     73 C68        38.8300   34.2300   43.0200 C.ar      1 PEN1       -0.0208
     74 C69        38.2600   32.9600   42.8000 C.ar      1 PEN1       -0.1195
     75 C70        37.1700   32.5500   43.5800 C.ar      1 PEN1       -0.1257
     76 C71        36.6400   33.3600   44.6000 C.ar      1 PEN1       -0.1332
     77 C72        37.1800   34.6400   44.8800 C.ar      1 PEN1       -0.1208
     78 C73        40.2300   34.6500   42.6200 C.ar      1 PEN1       -0.0491
     79 C74        41.1800   35.3100   43.4400 C.ar      1 PEN1       -0.1190
     80 C75        42.4500   35.6600   42.9500 C.ar      1 PEN1       -0.1194
     81 C76        42.8200   35.3300   41.6400 C.ar      1 PEN1       -0.1006
     82 C77        41.9300   34.6000   40.8400 C.ar      1 PEN1       -0.1194
     83 C78        40.6700   34.2500   41.3300 C.ar      1 PEN1       -0.1190
     84 C79        39.0400   40.8800   43.5600 C.2       1 PEN1        0.6818
     85 C80        44.1900   35.7200   41.1000 C.3       1 PEN1        0.1377
     86 C81        45.4000   39.3300   41.6100 C.ar      1 PEN1       -0.1333
     87 C82        44.2000   40.0600   41.4900 C.ar      1 PEN1       -0.0897
     88 C83        44.2300   41.4600   41.4400 C.ar      1 PEN1       -0.1306
     89 C84        45.4400   42.1800   41.5000 C.ar      1 PEN1       -0.0222
     90 C85        46.6400   41.4400   41.6200 C.ar      1 PEN1       -0.1306
     91 C86        45.4700   43.6700   41.3200 C.ar      1 PEN1       -0.0387
     92 C87        45.4200   44.3500   42.6700 C.ar      1 PEN1       -0.0138
     93 C88        45.5900   45.7500   42.7200 C.ar      1 PEN1       -0.1194
     94 C89        46.0000   46.4400   41.5600 C.ar      1 PEN1       -0.1278
     95 C90        46.2000   45.7600   40.3400 C.ar      1 PEN1       -0.1307
     96 C91        45.9700   44.3800   40.2200 C.ar      1 PEN1       -0.1237
     97 C92        44.6000   43.5400   43.6200 C.ar      1 PEN1       -0.0593
     98 C93        45.1800   42.5400   44.4400 C.ar      1 PEN1       -0.1166
     99 C94        44.4100   41.8300   45.3700 C.ar      1 PEN1       -0.1268
    100 C95        43.0400   42.1100   45.5300 C.ar      1 PEN1       -0.0581
    101 C96        42.4600   43.1200   44.7400 C.ar      1 PEN1       -0.1268
    102 C97        43.2300   43.8300   43.8000 C.ar      1 PEN1       -0.1166
    103 C98        45.4000   37.8300   41.6800 C.2       1 PEN1        0.6714
    104 C99        42.2300   41.3000   46.5400 C.3       1 PEN1        0.2014
    105 O1         36.1900   40.1400   41.4500 O.2       1 PEN1       -0.6357
    106 O2         42.7800   38.3000   38.8400 O.2       1 PEN1       -0.6444
    107 O3         39.5600   41.5200   44.4500 O.2       1 PEN1       -0.6524
    108 O4         46.2900   37.2200   42.2500 O.2       1 PEN1       -0.6271
    109 C100       36.4600   37.6300   34.3400 C.2       1 PEN1        0.6422
    110 O5         35.1300   37.4600   34.4700 O.3       1 PEN1       -0.5773
    111 O6         37.1900   36.6900   34.1200 O.2       1 PEN1       -0.4980
    112 H1         39.1300   35.6700   35.5200 H         1 PEN1        0.1484
    113 H2         32.9900   33.8600   39.1600 H         1 PEN1        0.1374
    114 H3         35.4500   30.3300   38.6400 H         1 PEN1        0.1349
    115 H4         38.9900   38.5100   34.0100 H         1 PEN1        0.1447
    116 H5         33.2300   31.3800   38.9900 H         1 PEN1        0.1347
    117 H6         37.5100   31.7200   38.4400 H         1 PEN1        0.1411
    118 H7         35.0800   42.3700   41.0700 H         1 PEN1        0.0725
    119 H8         38.5300   42.1800   37.5100 H         1 PEN1        0.1428
    120 H9         34.1000   44.2200   38.3800 H         1 PEN1        0.1417
    121 H10        41.8300   36.3600   37.7300 H         1 PEN1        0.0676
    122 H11        40.0200   36.4600   39.6700 H         1 PEN1        0.1484
    123 H12        40.6500   45.2200   33.0700 H         1 PEN1        0.1398
    124 H13        41.2200   36.6500   36.1000 H         1 PEN1        0.0676
    125 H14        37.1800   34.3100   36.1900 H         1 PEN1        0.1448
    126 H15        37.1800   41.3500   39.3600 H         1 PEN1        0.1417
    127 H16        39.7800   46.8500   34.7300 H         1 PEN1        0.1411
    128 H17        34.9700   36.4700   37.2800 H         1 PEN1        0.1513
    129 H18        39.8100   42.9000   33.0200 H         1 PEN1        0.1400
    130 H19        38.1000   46.1500   36.4100 H         1 PEN1        0.1417
    131 H20        39.8600   40.8200   34.1500 H         1 PEN1        0.1518
    132 H21        35.0200   40.0000   34.9100 H         1 PEN1        0.1447
    133 H22        35.5100   45.0900   36.5300 H         1 PEN1        0.1428
    134 H23        33.6400   42.5300   40.0500 H         1 PEN1        0.0725
    135 H24        38.0900   35.0300   40.3300 H         1 PEN1        0.1448
    136 H25        35.5200   35.1500   41.3500 H         1 PEN1        0.1513
    137 H26        35.6500   37.5200   42.1100 H         1 PEN1        0.1423
    138 H27        35.0800   38.8300   38.0200 H         1 PEN1        0.1423
    139 H28        35.8900   42.2600   35.0100 H         1 PEN1        0.1518
    140 H29        33.9400   40.2500   39.2700 H         1 PEN1        0.3113
    141 H30        37.8800   40.9200   41.8900 H         1 PEN1        0.3355
    142 H31        37.3500   43.2200   42.0900 H         1 PEN1        0.0619
    143 H32        38.6300   43.4400   43.2800 H         1 PEN1        0.0619
    144 H33        39.2000   45.5300   38.4800 H         1 PEN1        0.1376
    145 H34        37.7100   44.4600   40.1300 H         1 PEN1        0.1428
    146 H35        41.1300   42.8200   42.1800 H         1 PEN1        0.1428
    147 H36        42.6300   43.9500   40.5400 H         1 PEN1        0.1376
    148 H37        44.1300   44.7100   35.8400 H         1 PEN1        0.1376
    149 H38        44.3400   47.1900   35.8200 H         1 PEN1        0.1334
    150 H39        43.0300   48.6000   37.3800 H         1 PEN1        0.1331
    151 H40        41.4800   47.5800   39.0600 H         1 PEN1        0.1393
    152 H41        44.3800   42.9100   38.5000 H         1 PEN1        0.1483
    153 H42        40.4800   43.1800   36.7400 H         1 PEN1        0.1483
    154 H43        40.1700   40.7400   37.0100 H         1 PEN1        0.1479
    155 H44        44.1200   40.4800   38.7700 H         1 PEN1        0.1479
    156 H45        40.4100   38.8600   36.8600 H         1 PEN1        0.3136
    157 H46        39.1600   39.3600   45.7800 H         1 PEN1        0.1478
    158 H47        38.6300   39.0200   41.5000 H         1 PEN1        0.1478
    159 H48        38.3200   36.6000   41.7400 H         1 PEN1        0.1415
    160 H49        38.8500   36.9200   46.0000 H         1 PEN1        0.1415
    161 H50        38.7100   32.2800   42.0800 H         1 PEN1        0.1405
    162 H51        36.7400   31.5600   43.4100 H         1 PEN1        0.1343
    163 H52        35.7800   33.0200   45.1700 H         1 PEN1        0.1330
    164 H53        36.6900   35.3000   45.5800 H         1 PEN1        0.1374
    165 H54        40.9300   35.5600   44.4700 H         1 PEN1        0.1393
    166 H55        43.1500   36.2000   43.5900 H         1 PEN1        0.1408
    167 H56        42.2100   34.3100   39.8300 H         1 PEN1        0.1408
    168 H57        40.0000   33.6800   40.6900 H         1 PEN1        0.1393
    169 H58        44.9600   35.2500   41.7300 H         1 PEN1        0.0659
    170 H59        44.3200   35.3300   40.0800 H         1 PEN1        0.0659
    171 H60        43.7200   37.7300   40.5000 H         1 PEN1        0.3408
    172 H61        47.5500   39.4800   41.8000 H         1 PEN1        0.1503
    173 H62        43.2400   39.5500   41.4500 H         1 PEN1        0.1503
    174 H63        43.2900   42.0000   41.3400 H         1 PEN1        0.1412
    175 H64        47.5900   41.9600   41.6500 H         1 PEN1        0.1412
    176 H65        45.3800   46.2800   43.6400 H         1 PEN1        0.1408
    177 H66        46.1400   47.5100   41.6100 H         1 PEN1        0.1318
    178 H67        46.5500   46.3200   39.4700 H         1 PEN1        0.1316
    179 H68        46.2000   43.8600   39.2900 H         1 PEN1        0.1330
    180 H69        46.2400   42.3200   44.3400 H         1 PEN1        0.1348
    181 H70        44.8700   41.0500   45.9700 H         1 PEN1        0.1405
    182 H71        41.4000   43.3600   44.8400 H         1 PEN1        0.1405
    183 H72        42.7700   44.6200   43.2100 H         1 PEN1        0.1348
    184 H73        42.0300   40.3100   46.1000 H         1 PEN1        0.0343
    185 H74        42.8400   41.1400   47.4300 H         1 PEN1        0.0343
    186 H75        40.4000   41.9900   46.0600 H         1 PEN1        0.3513
    187 H76        40.4400   41.2900   47.5200 H         1 PEN1        0.3513
    188 H77        34.8100   38.3600   34.5100 H         1 PEN1        0.4243
@<TRIPOS>BOND
     1    3    8 1
     2    6    9 ar
     3    8    9 1
     4    1   10 1
     5    7   12 1
     6   11   14 ar
     7   13   16 ar
     8   10   18 1
     9    6   20 ar
    10   19   21 ar
    11   18   23 ar
    12   23   24 ar
    13   12   24 ar
    14   17   26 ar
    15   27   28 ar
    16   20   28 ar
    17   16   28 1
    18   12   29 ar
    19   25   30 ar
    20   15   31 ar
    21   22   31 ar
    22    7   32 ar
    23   15   33 ar
    24   14   34 ar
    25   19   34 ar
    26   27   35 ar
    27    9   35 ar
    28   30   36 ar
    29   16   36 ar
    30   25   37 ar
    31   13   37 ar
    32   31   38 1
    33    1   38 am
    34   29   39 ar
    35   18   39 ar
    36   32   40 ar
    37   17   40 ar
    38   26   41 ar
    39    7   41 ar
    40   22   42 ar
    41   41   43 1
    42   21   43 ar
    43   11   43 ar
    44   13   44 1
    45   33   44 ar
    46   42   44 ar
    47    2   45 1
    48    3   46 am
    49   47   48 ar
    50   45   49 1
    51   48   49 ar
    52   49   50 ar
    53   50   51 ar
    54   47   52 ar
    55   51   52 ar
    56   53   54 ar
    57   54   55 ar
    58   55   56 ar
    59   56   57 ar
    60   52   57 1
    61   57   58 ar
    62   53   58 ar
    63   59   60 ar
    64   58   60 1
    65   60   61 ar
    66   61   62 ar
    67   46   63 1
    68   62   63 ar
    69   63   64 ar
    70   59   64 ar
    71   66   67 ar
    72   67   68 ar
    73   68   69 ar
    74   69   70 ar
    75   70   71 ar
    76   66   71 ar
    77   70   72 1
    78   72   73 ar
    79   73   74 ar
    80   74   75 ar
    81   75   76 ar
    82   72   77 ar
    83   76   77 ar
    84   73   78 1
    85   78   79 ar
    86   79   80 ar
    87   80   81 ar
    88   81   82 ar
    89   82   83 ar
    90   78   83 ar
    91   67   84 1
    92    2   84 am
    93   81   85 1
    94    4   85 1
    95   65   86 ar
    96   86   87 ar
    97   87   88 ar
    98   88   89 ar
    99   89   90 ar
   100   65   90 ar
   101   89   91 1
   102   91   92 ar
   103   92   93 ar
   104   93   94 ar
   105   94   95 ar
   106   91   96 ar
   107   95   96 ar
   108   92   97 1
   109   97   98 ar
   110   98   99 ar
   111   99  100 ar
   112  100  101 ar
   113  101  102 ar
   114   97  102 ar
   115   86  103 1
   116    4  103 am
   117  100  104 1
   118    5  104 1
   119   38  105 2
   120   46  106 2
   121   84  107 2
   122  103  108 2
   123   34  109 1
   124  109  110 1
   125  109  111 2
   126   35  112 1
   127   37  113 1
   128   30  114 1
   129   14  115 1
   130   25  116 1
   131   36  117 1
   132   10  118 1
   133   24  119 1
   134   39  120 1
   135    8  121 1
   136    6  122 1
   137   17  123 1
   138    8  124 1
   139   27  125 1
   140   23  126 1
   141   40  127 1
   142   33  128 1
   143   26  129 1
   144   32  130 1
   145   11  131 1
   146   19  132 1
   147   29  133 1
   148   10  134 1
   149   20  135 1
   150   42  136 1
   151   22  137 1
   152   15  138 1
   153   21  139 1
   154    1  140 1
   155    2  141 1
   156   45  142 1
   157   45  143 1
   158   47  144 1
   159   48  145 1
   160   50  146 1
   161   51  147 1
   162   53  148 1
   163   54  149 1
   164   55  150 1
   165   56  151 1
   166   59  152 1
   167   61  153 1
   168   62  154 1
   169   64  155 1
   170    3  156 1
   171   66  157 1
   172   68  158 1
   173   69  159 1
   174   71  160 1
   175   74  161 1
   176   75  162 1
   177   76  163 1
   178   77  164 1
   179   79  165 1
   180   80  166 1
   181   82  167 1
   182   83  168 1
   183   85  169 1
   184   85  170 1
   185    4  171 1
   186   65  172 1
   187   87  173 1
   188   88  174 1
   189   90  175 1
   190   93  176 1
   191   94  177 1
   192   95  178 1
   193   96  179 1
   194   98  180 1
   195   99  181 1
   196  101  182 1
   197  102  183 1
   198  104  184 1
   199  104  185 1
   200    5  186 1
   201    5  187 1
   202  110  188 1
