@<TRIPOS>MOLECULE
PEN
  188   202     1     0     0
SMALL
bcc


@<TRIPOS>ATOM
      1 N            4.2690     6.1780    11.3530 n          1 PEN      -0.549900
      2 N1           8.1720     7.0380    14.0800 n          1 PEN      -0.549400
      3 N2          11.4230     3.3900     8.3960 n          1 PEN      -0.549400
      4 N3          14.5400     2.2820    12.1020 n          1 PEN      -0.545900
      5 N4          10.6800     7.4680    18.5900 n3         1 PEN      -0.903800
      6 C            9.5370     1.5400     9.8890 ca         1 PEN      -0.118333
      7 C1           7.9220     9.3110     7.1200 cp         1 PEN      -0.021000
      8 C2          11.4160     1.9490     8.2550 c3         1 PEN       0.134300
      9 C3          10.0870     1.3380     8.6200 ca         1 PEN      -0.108300
     10 C4           4.4120     7.6180    11.4310 c3         1 PEN       0.127300
     11 C5           8.4350     5.9000     6.0840 ca         1 PEN      -0.124000
     12 C6           7.0320     8.9460     8.2360 cp         1 PEN      -0.039000
     13 C7           5.3980    -0.2410    10.5500 cp         1 PEN      -0.036000
     14 C8           7.8650     4.6220     6.0900 ca         1 PEN      -0.085000
     15 C9           4.9480     3.5210    10.2980 ca         1 PEN      -0.092833
     16 C10          6.5170    -0.7970     9.8690 cp         1 PEN      -0.018333
     17 C11          9.7690    10.0500     5.1290 ca         1 PEN      -0.126000
     18 C12          5.3200     8.1190    10.3340 ca         1 PEN      -0.120300
     19 C13          5.6720     5.6110     5.8690 ca         1 PEN      -0.085000
     20 C14          8.3750     0.8630    10.2820 ca         1 PEN      -0.123000
     21 C15          6.2480     6.8840     5.8630 ca         1 PEN      -0.124000
     22 C16          5.3260     2.9320    12.6130 ca         1 PEN      -0.092833
     23 C17          6.6340     7.6450    10.2480 ca         1 PEN      -0.117500
     24 C18          7.4690     8.0430     9.2100 ca         1 PEN      -0.117500
     25 C19          4.3590    -2.4590    10.6680 ca         1 PEN      -0.130667
     26 C20          9.1600     8.7950     5.0880 ca         1 PEN      -0.114000
     27 C21          8.2590    -0.1980     8.1430 ca         1 PEN      -0.123000
     28 C22          7.7060    -0.0200     9.4250 cp         1 PEN      -0.044000
     29 C23          5.7330     9.4640     8.3490 ca         1 PEN      -0.117500
     30 C24          5.4520    -3.0110    10.0200 ca         1 PEN      -0.126333
     31 C25          5.0970     3.9040    11.6370 ca         1 PEN      -0.144267
     32 C26          8.5370    10.5770     7.1310 ca         1 PEN      -0.119000
     33 C27          5.0290     2.1690     9.9430 ca         1 PEN      -0.125000
     34 C28          6.4760     4.4760     6.0040 ca         1 PEN      -0.181600
     35 C29          9.4310     0.4630     7.7470 ca         1 PEN      -0.118333
     36 C30          6.5130    -2.1920     9.6290 ca         1 PEN      -0.120667
     37 C31          4.3350    -1.0910    10.9310 ca         1 PEN      -0.120333
     38 C32          5.1060     5.3320    12.0470 c          1 PEN       0.675700
     39 C33          4.8820     9.0480     9.3820 ca         1 PEN      -0.117500
     40 C34          9.4570    10.9410     6.1490 ca         1 PEN      -0.120000
     41 C35          8.2340     8.4000     6.0740 cq         1 PEN      -0.049000
     42 C36          5.4060     1.5840    12.2520 ca         1 PEN      -0.125000
     43 C37          7.6350     7.0520     5.9980 cq         1 PEN       0.005000
     44 C38          5.2780     1.1840    10.9100 cp         1 PEN      -0.011333
     45 C39          8.1570     8.4810    13.9740 c3         1 PEN       0.134300
     46 C40         12.3330     4.0300     9.2120 c          1 PEN       0.675700
     47 C41          9.5650    10.4540    11.0160 ca         1 PEN      -0.123000
     48 C42          8.6770     9.9420    11.9730 ca         1 PEN      -0.118333
     49 C43          9.1000     8.9910    12.9090 ca         1 PEN      -0.108300
     50 C44         10.4400     8.5900    12.8780 ca         1 PEN      -0.118333
     51 C45         11.3290     9.1210    11.9340 ca         1 PEN      -0.123000
     52 C46         10.9090    10.0490    10.9730 cp         1 PEN      -0.044000
     53 C47         13.5110    10.4580     8.1910 ca         1 PEN      -0.120333
     54 C48         13.6360    11.8470     8.1610 ca         1 PEN      -0.130667
     55 C49         12.8840    12.6250     9.0290 ca         1 PEN      -0.126333
     56 C50         12.0050    12.0140     9.9230 ca         1 PEN      -0.120667
     57 C51         11.8520    10.6100     9.9760 cp         1 PEN      -0.018333
     58 C52         12.6300     9.8140     9.0880 cp         1 PEN      -0.036000
     59 C53         13.6800     7.5540     9.3610 ca         1 PEN      -0.125000
     60 C54         12.5590     8.3380     9.0520 cp         1 PEN      -0.011333
     61 C55         11.3650     7.6790     8.7330 ca         1 PEN      -0.125000
     62 C56         11.2660     6.2830     8.7840 ca         1 PEN      -0.092833
     63 C57         12.3860     5.5160     9.1150 ca         1 PEN      -0.144267
     64 C58         13.5970     6.1580     9.3910 ca         1 PEN      -0.092833
     65 C59         16.7510     5.0700    12.8500 ca         1 PEN      -0.094000
     66 C60          8.5090     4.2040    16.3410 ca         1 PEN      -0.092833
     67 C61          8.6440     4.9030    15.1390 ca         1 PEN      -0.144267
     68 C62          8.7530     4.1960    13.9390 ca         1 PEN      -0.092833
     69 C63          8.6680     2.8000    13.9420 ca         1 PEN      -0.125000
     70 C64          8.4710     2.0800    15.1310 cp         1 PEN      -0.011333
     71 C65          8.4170     2.8080    16.3330 ca         1 PEN      -0.125000
     72 C66          8.2400     0.6170    15.1220 cp         1 PEN      -0.036000
     73 C67          9.1340    -0.3360    14.5660 cp         1 PEN      -0.018333
     74 C68          8.7640    -1.7010    14.5960 ca         1 PEN      -0.120667
     75 C69          7.5540    -2.1300    15.1410 ca         1 PEN      -0.126333
     76 C70          6.6800    -1.2010    15.6810 ca         1 PEN      -0.130667
     77 C71          7.0210     0.1510    15.6730 ca         1 PEN      -0.120333
     78 C72         10.4410     0.0040    13.9600 cp         1 PEN      -0.044000
     79 C73         11.4320     0.6910    14.6740 ca         1 PEN      -0.123000
     80 C74         12.6740     0.9690    14.0930 ca         1 PEN      -0.118333
     81 C75         12.9610     0.5680    12.7810 ca         1 PEN      -0.108300
     82 C76         11.9820    -0.1240    12.0640 ca         1 PEN      -0.118333
     83 C77         10.7440    -0.4050    12.6490 ca         1 PEN      -0.123000
     84 C78          8.6980     6.3890    15.1740 c          1 PEN       0.675700
     85 C79         14.3070     0.8610    12.1650 c3         1 PEN       0.134300
     86 C80         15.5380     4.3790    12.7970 ca         1 PEN      -0.135600
     87 C81         14.3360     5.0900    12.8120 ca         1 PEN      -0.094000
     88 C82         14.3530     6.4860    12.8570 ca         1 PEN      -0.123500
     89 C83         15.5610     7.2020    12.8910 cp         1 PEN      -0.021000
     90 C84         16.7600     6.4690    12.8870 ca         1 PEN      -0.123500
     91 C85         15.5800     8.6820    12.9230 cp         1 PEN      -0.030000
     92 C86         14.9660     9.4580    13.9440 cp         1 PEN      -0.020000
     93 C87         15.0270    10.8660    13.8460 ca         1 PEN      -0.120000
     94 C88         15.6580    11.5040    12.7780 ca         1 PEN      -0.130000
     95 C89         16.2570    10.7470    11.7820 ca         1 PEN      -0.131000
     96 C90         16.2240     9.3550    11.8590 ca         1 PEN      -0.122000
     97 C91         14.2420     8.8680    15.0940 cp         1 PEN      -0.052000
     98 C92         14.8290     7.9130    15.9350 ca         1 PEN      -0.116500
     99 C93         14.0980     7.3090    16.9650 ca         1 PEN      -0.129000
    100 C94         12.7610     7.6590    17.2050 ca         1 PEN      -0.111300
    101 C95         12.1860     8.6460    16.3980 ca         1 PEN      -0.129000
    102 C96         12.9160     9.2420    15.3650 ca         1 PEN      -0.116500
    103 C97         15.5510     2.8950    12.8010 c          1 PEN       0.662700
    104 C98         11.9990     6.9210    18.2820 c3         1 PEN       0.196100
    105 O            5.8680     5.7060    12.9340 o          1 PEN      -0.640767
    106 O1          13.0980     3.4410     9.9690 o          1 PEN      -0.640767
    107 O2           9.1720     6.9560    16.1520 o          1 PEN      -0.640767
    108 O3          16.4290     2.2940    13.4100 o          1 PEN      -0.620100
    109 C99          5.9210     3.2570     6.0510 c          1 PEN       0.656700
    110 O4           4.7210     3.2360     6.0460 oh         1 PEN      -0.581100
    111 O5           6.5630     2.2170     6.0960 o          1 PEN      -0.521000
    112 H            9.8370     0.2610     6.7570 ha         1 PEN       0.148167
    113 H1           3.4700    -0.6760    11.4480 ha         1 PEN       0.136667
    114 H2           5.4880    -4.0790     9.8230 ha         1 PEN       0.133333
    115 H3           8.5170     3.7550     6.1450 ha         1 PEN       0.147500
    116 H4           3.5280    -3.0880    10.9770 ha         1 PEN       0.133333
    117 H5           7.3660    -2.6650     9.1450 ha         1 PEN       0.140333
    118 H6           4.8110     7.9160    12.4060 h1         1 PEN       0.072200
    119 H7           8.4720     7.6340     9.1740 ha         1 PEN       0.139500
    120 H8           3.8720     9.4510     9.4270 ha         1 PEN       0.140000
    121 H9          12.2020     1.4860     8.8620 h1         1 PEN       0.069367
    122 H10         10.0420     2.1850    10.6070 ha         1 PEN       0.148167
    123 H11         10.4880    10.3310     4.3630 ha         1 PEN       0.139000
    124 H12         11.6540     1.7470     7.2050 h1         1 PEN       0.069367
    125 H13          7.7870    -0.8790     7.4360 ha         1 PEN       0.134000
    126 H14          7.0280     6.9520    10.9870 ha         1 PEN       0.140000
    127 H15          9.9370    11.9160     6.1890 ha         1 PEN       0.139000
    128 H16          4.9040     1.8850     8.9000 ha         1 PEN       0.144000
    129 H17          9.4130     8.1180     4.2750 ha         1 PEN       0.139000
    130 H18          8.3170    11.2810     7.9310 ha         1 PEN       0.142000
    131 H19          9.5160     6.0010     6.1560 ha         1 PEN       0.150000
    132 H20          4.5920     5.5120     5.7770 ha         1 PEN       0.147500
    133 H21          5.3670    10.1750     7.6110 ha         1 PEN       0.139500
    134 H22          3.4080     8.0430    11.3290 h1         1 PEN       0.072200
    135 H23          8.0250     0.9950    11.3020 ha         1 PEN       0.134000
    136 H24          5.6000     0.8410    13.0230 ha         1 PEN       0.144000
    137 H25          5.4620     3.2180    13.6540 ha         1 PEN       0.148167
    138 H26          4.8070     4.2580     9.5120 ha         1 PEN       0.148167
    139 H27          5.6000     7.7530     5.7670 ha         1 PEN       0.150000
    140 H28          3.6950     5.8140    10.6060 hn         1 PEN       0.306500
    141 H29          7.5230     6.5210    13.4870 hn         1 PEN       0.331167
    142 H30          7.1250     8.7600    13.7340 h1         1 PEN       0.069367
    143 H31          8.4130     8.9470    14.9310 h1         1 PEN       0.069367
    144 H32          9.1930    11.1790    10.2970 ha         1 PEN       0.134000
    145 H33          7.6470    10.2920    11.9710 ha         1 PEN       0.148167
    146 H34         10.8120     7.8750    13.6100 ha         1 PEN       0.148167
    147 H35         12.3710     8.8140    11.9640 ha         1 PEN       0.134000
    148 H36         14.1060     9.8660     7.4990 ha         1 PEN       0.136667
    149 H37         14.3240    12.3160     7.4620 ha         1 PEN       0.133333
    150 H38         12.9830    13.7070     9.0190 ha         1 PEN       0.133333
    151 H39         11.4410    12.6450    10.6090 ha         1 PEN       0.140333
    152 H40         14.6250     8.0290     9.6130 ha         1 PEN       0.144000
    153 H41         10.4920     8.2700     8.4700 ha         1 PEN       0.144000
    154 H42         10.2990     5.8230     8.6070 ha         1 PEN       0.148167
    155 H43         14.4800     5.5780     9.6550 ha         1 PEN       0.148167
    156 H44         10.9080     3.9220     7.7130 hn         1 PEN       0.331167
    157 H45          8.4510     4.7440    17.2830 ha         1 PEN       0.148167
    158 H46          8.9020     4.7160    12.9970 ha         1 PEN       0.148167
    159 H47          8.7350     2.2760    12.9950 ha         1 PEN       0.144000
    160 H48          8.2870     2.2870    17.2800 ha         1 PEN       0.144000
    161 H49          9.4410    -2.4530    14.1920 ha         1 PEN       0.140333
    162 H50          7.3020    -3.1870    15.1430 ha         1 PEN       0.133333
    163 H51          5.7340    -1.5220    16.1060 ha         1 PEN       0.133333
    164 H52          6.3100     0.8630    16.0910 ha         1 PEN       0.136667
    165 H53         11.2500     1.0080    15.6990 ha         1 PEN       0.134000
    166 H54         13.4260     1.5010    14.6750 ha         1 PEN       0.148167
    167 H55         12.1720    -0.4530    11.0450 ha         1 PEN       0.148167
    168 H56         10.0050    -0.9490    12.0640 ha         1 PEN       0.134000
    169 H57         15.0890     0.3520    12.7390 h1         1 PEN       0.069367
    170 H58         14.3550     0.4880    11.1360 h1         1 PEN       0.069367
    171 H59         13.9450     2.8220    11.4710 hn         1 PEN       0.331167
    172 H60         17.6910     4.5210    12.8690 ha         1 PEN       0.147000
    173 H61         13.3790     4.5740    12.8150 ha         1 PEN       0.147000
    174 H62         13.4030     7.0120    12.8800 ha         1 PEN       0.140000
    175 H63         17.7170     6.9870    12.9350 ha         1 PEN       0.140000
    176 H64         14.5710    11.4820    14.6200 ha         1 PEN       0.139000
    177 H65         15.6780    12.5890    12.7280 ha         1 PEN       0.131000
    178 H66         16.7440    11.2360    10.9430 ha         1 PEN       0.131000
    179 H67         16.6930     8.7820    11.0610 ha         1 PEN       0.135000
    180 H68         15.8620     7.6090    15.7810 ha         1 PEN       0.133000
    181 H69         14.5790     6.5460    17.5730 ha         1 PEN       0.143000
    182 H70         11.1540     8.9540    16.5470 ha         1 PEN       0.143000
    183 H71         12.4190     9.9890    14.7490 ha         1 PEN       0.133000
    184 H72         11.8790     5.8770    17.9680 h1         1 PEN       0.054200
    185 H73         12.5920     6.9310    19.2030 h1         1 PEN       0.054200
    186 H74         10.1000     7.3730    17.7420 hn         1 PEN       0.356800
    187 H75         10.2290     6.8680    19.2760 hn         1 PEN       0.356800
    188 H76          4.4050     3.1940     5.1410 ho         1 PEN       0.434000
@<TRIPOS>BOND
     1     1    10 1   
     2     1    38 1   
     3     1   140 1   
     4     2    45 1   
     5     2    84 1   
     6     2   141 1   
     7     3     8 1   
     8     3    46 1   
     9     3   156 1   
    10     4    85 1   
    11     4   103 1   
    12     4   171 1   
    13     5   104 1   
    14     5   186 1   
    15     5   187 1   
    16     6     9 ar  
    17     6    20 ar  
    18     6   122 1   
    19     7    12 1   
    20     7    32 ar  
    21     7    41 2   
    22     8     9 1   
    23     8   121 1   
    24     8   124 1   
    25     9    35 ar  
    26    10    18 1   
    27    10   118 1   
    28    10   134 1   
    29    11    14 ar  
    30    11    43 2   
    31    11   131 1   
    32    12    24 ar  
    33    12    29 ar  
    34    13    16 ar  
    35    13    37 ar  
    36    13    44 1   
    37    14    34 ar  
    38    14   115 1   
    39    15    31 ar  
    40    15    33 ar  
    41    15   138 1   
    42    16    28 1   
    43    16    36 ar  
    44    17    26 ar  
    45    17    40 ar  
    46    17   123 1   
    47    18    23 ar  
    48    18    39 ar  
    49    19    21 ar  
    50    19    34 ar  
    51    19   132 1   
    52    20    28 ar  
    53    20   135 1   
    54    21    43 1   
    55    21   139 1   
    56    22    31 ar  
    57    22    42 ar  
    58    22   137 1   
    59    23    24 ar  
    60    23   126 1   
    61    24   119 1   
    62    25    30 ar  
    63    25    37 ar  
    64    25   116 1   
    65    26    41 1   
    66    26   129 1   
    67    27    28 ar  
    68    27    35 ar  
    69    27   125 1   
    70    29    39 ar  
    71    29   133 1   
    72    30    36 ar  
    73    30   114 1   
    74    31    38 1   
    75    32    40 ar  
    76    32   130 1   
    77    33    44 ar  
    78    33   128 1   
    79    34   109 1   
    80    35   112 1   
    81    36   117 1   
    82    37   113 1   
    83    38   105 2   
    84    39   120 1   
    85    40   127 1   
    86    41    43 1   
    87    42    44 ar  
    88    42   136 1   
    89    45    49 1   
    90    45   142 1   
    91    45   143 1   
    92    46    63 1   
    93    46   106 2   
    94    47    48 ar  
    95    47    52 ar  
    96    47   144 1   
    97    48    49 ar  
    98    48   145 1   
    99    49    50 ar  
   100    50    51 ar  
   101    50   146 1   
   102    51    52 ar  
   103    51   147 1   
   104    52    57 1   
   105    53    54 ar  
   106    53    58 ar  
   107    53   148 1   
   108    54    55 ar  
   109    54   149 1   
   110    55    56 ar  
   111    55   150 1   
   112    56    57 ar  
   113    56   151 1   
   114    57    58 ar  
   115    58    60 1   
   116    59    60 ar  
   117    59    64 ar  
   118    59   152 1   
   119    60    61 ar  
   120    61    62 ar  
   121    61   153 1   
   122    62    63 ar  
   123    62   154 1   
   124    63    64 ar  
   125    64   155 1   
   126    65    86 ar  
   127    65    90 ar  
   128    65   172 1   
   129    66    67 ar  
   130    66    71 ar  
   131    66   157 1   
   132    67    68 ar  
   133    67    84 1   
   134    68    69 ar  
   135    68   158 1   
   136    69    70 ar  
   137    69   159 1   
   138    70    71 ar  
   139    70    72 1   
   140    71   160 1   
   141    72    73 ar  
   142    72    77 ar  
   143    73    74 ar  
   144    73    78 1   
   145    74    75 ar  
   146    74   161 1   
   147    75    76 ar  
   148    75   162 1   
   149    76    77 ar  
   150    76   163 1   
   151    77   164 1   
   152    78    79 ar  
   153    78    83 ar  
   154    79    80 ar  
   155    79   165 1   
   156    80    81 ar  
   157    80   166 1   
   158    81    82 ar  
   159    81    85 1   
   160    82    83 ar  
   161    82   167 1   
   162    83   168 1   
   163    84   107 2   
   164    85   169 1   
   165    85   170 1   
   166    86    87 ar  
   167    86   103 1   
   168    87    88 ar  
   169    87   173 1   
   170    88    89 ar  
   171    88   174 1   
   172    89    90 ar  
   173    89    91 1   
   174    90   175 1   
   175    91    92 ar  
   176    91    96 ar  
   177    92    93 ar  
   178    92    97 1   
   179    93    94 ar  
   180    93   176 1   
   181    94    95 ar  
   182    94   177 1   
   183    95    96 ar  
   184    95   178 1   
   185    96   179 1   
   186    97    98 ar  
   187    97   102 ar  
   188    98    99 ar  
   189    98   180 1   
   190    99   100 ar  
   191    99   181 1   
   192   100   101 ar  
   193   100   104 1   
   194   101   102 ar  
   195   101   182 1   
   196   102   183 1   
   197   103   108 2   
   198   104   184 1   
   199   104   185 1   
   200   109   110 1   
   201   109   111 2   
   202   110   188 1   
@<TRIPOS>SUBSTRUCTURE
     1 PEN         1 TEMP              0 ****  ****    0 ROOT
