@<TRIPOS>MOLECULE
MOL
  299   322     1     0     0
SMALL
bcc


@<TRIPOS>ATOM
      1 N           10.9020     4.9240    18.5950 n          1 MOL      -0.550900
      2 N1          14.6820     2.1280    12.1470 n          1 MOL      -0.550900
      3 N2          11.4640     3.2790     8.4370 n          1 MOL      -0.546900
      4 N3           8.0610     6.9410    14.0410 n          1 MOL      -0.550900
      5 N4          13.3670     4.8900    22.7720 n          1 MOL      -0.550900
      6 N5          16.7520     0.8820    16.6240 n          1 MOL      -0.550900
      7 N6          19.4820    -0.1770    20.9380 n          1 MOL      -0.544900
      8 N7          15.6180     5.2260    27.3620 n3         1 MOL      -0.904800
      9 C           15.3460     2.7560    13.1770 c          1 MOL       0.676500
     10 C1           5.4330    -0.1790    10.4620 cp         1 MOL      -0.046000
     11 C2          11.2030     8.1920    16.9910 ca         1 MOL      -0.120167
     12 C3          11.6900     7.0470    17.6270 ca         1 MOL      -0.107467
     13 C4          11.4730     1.8440     8.2600 c3         1 MOL       0.125300
     14 C5          13.9940     4.8480    12.9270 ca         1 MOL      -0.095250
     15 C6          13.8640     6.2330    13.0490 ca         1 MOL      -0.127417
     16 C7          10.1500     1.2280     8.6310 ca         1 MOL      -0.122300
     17 C8          14.3930     0.7140    12.1830 c3         1 MOL       0.134633
     18 C9          15.2140     4.2310    13.2240 ca         1 MOL      -0.142433
     19 C10         11.9660     8.8590    16.0220 ca         1 MOL      -0.121500
     20 C11         15.5080     9.2690    12.6540 ca         1 MOL      -0.120500
     21 C12          9.7230     1.2440     9.9620 ca         1 MOL      -0.121500
     22 C13         10.8940     6.3700    18.7160 c3         1 MOL       0.134633
     23 C14         15.4660    10.6590    12.6830 ca         1 MOL      -0.130000
     24 C15         12.9700     6.6100    17.2880 ca         1 MOL      -0.120167
     25 C16         13.7350     7.2940    16.3330 ca         1 MOL      -0.121500
     26 C17         13.2500     8.4190    15.6560 cp         1 MOL      -0.043500
     27 C18         14.0570    10.5450    14.6330 ca         1 MOL      -0.119833
     28 C19         14.0530     9.1310    14.6210 cp         1 MOL      -0.019333
     29 C20         16.1650     6.3830    13.7650 ca         1 MOL      -0.127417
     30 C21         14.7460    11.2990    13.6800 ca         1 MOL      -0.125833
     31 C22         14.8190     8.4840    13.6080 cp         1 MOL      -0.036833
     32 C23         14.9440     7.0210    13.4710 cp         1 MOL      -0.013667
     33 C24          8.2880     6.2470    15.2040 c          1 MOL       0.676500
     34 C25         10.8900    -0.7310    12.6430 ca         1 MOL      -0.121500
     35 C26         12.1570    -0.4620    12.1080 ca         1 MOL      -0.120167
     36 C27         13.0090     0.4510    12.7310 ca         1 MOL      -0.107467
     37 C28         12.5620     1.0780    13.8990 ca         1 MOL      -0.120167
     38 C29         11.2880     0.8240    14.4110 ca         1 MOL      -0.121500
     39 C30         10.4260    -0.0990    13.8140 cp         1 MOL      -0.043500
     40 C31          6.9540    -0.0790    15.4690 ca         1 MOL      -0.120500
     41 C32          6.6930    -1.4460    15.5290 ca         1 MOL      -0.130000
     42 C33          7.6380    -2.3370    15.0560 ca         1 MOL      -0.125833
     43 C34          8.8260    -1.8520    14.5110 ca         1 MOL      -0.119833
     44 C35          9.1180    -0.4660    14.4160 cp         1 MOL      -0.019333
     45 C36          8.1610     0.4480    14.9380 cp         1 MOL      -0.036833
     46 C37          8.0770     2.6140    16.1930 ca         1 MOL      -0.127417
     47 C38          8.3050     1.9250    14.9850 cp         1 MOL      -0.013667
     48 C39          8.5950     2.6960    13.8500 ca         1 MOL      -0.127417
     49 C40          8.6110     4.0980    13.9030 ca         1 MOL      -0.095250
     50 C41          8.3210     4.7610    15.0990 ca         1 MOL      -0.142433
     51 C42          8.0800     4.0110    16.2510 ca         1 MOL      -0.095250
     52 C43         16.2970     4.9970    13.6570 ca         1 MOL      -0.095250
     53 C44         13.5390     6.0980     9.4550 ca         1 MOL      -0.095250
     54 C45         12.3450     5.4130     9.2100 ca         1 MOL      -0.142433
     55 C46         11.1800     6.1390     8.9440 ca         1 MOL      -0.095250
     56 C47         11.2190     7.5400     8.9050 ca         1 MOL      -0.127417
     57 C48         12.4100     8.2420     9.1520 cp         1 MOL      -0.013667
     58 C49         13.5690     7.4950     9.4270 ca         1 MOL      -0.127417
     59 C50         12.4590     9.7210     9.1400 cp         1 MOL      -0.036833
     60 C51         11.6770    10.5370    10.0050 cp         1 MOL      -0.019333
     61 C52         11.8240    11.9390     9.9280 ca         1 MOL      -0.119833
     62 C53         12.7060    12.5340     9.0260 ca         1 MOL      -0.125833
     63 C54         13.4600    11.7390     8.1740 ca         1 MOL      -0.130000
     64 C55         13.3370    10.3510     8.2310 ca         1 MOL      -0.120500
     65 C56         10.7390     9.9880    11.0060 cp         1 MOL      -0.043500
     66 C57         11.1890     9.1310    12.0160 ca         1 MOL      -0.121500
     67 C58         10.3050     8.5890    12.9510 ca         1 MOL      -0.120167
     68 C59          8.9450     8.9200    12.9300 ca         1 MOL      -0.107467
     69 C60          8.4870     9.7930    11.9370 ca         1 MOL      -0.120167
     70 C61          9.3720    10.3130    10.9840 ca         1 MOL      -0.121500
     71 C62         12.3640     3.9230     9.2570 c          1 MOL       0.679700
     72 C63          8.0210     8.3840    13.9950 c3         1 MOL       0.134633
     73 C64          5.3750     1.2730    10.7050 cp         1 MOL       0.001000
     74 C65          5.4730     1.7790    12.0120 ca         1 MOL      -0.123000
     75 C66          4.3470    -0.9720    10.8850 ca         1 MOL      -0.114000
     76 C67          6.4950    -2.2030     9.6290 ca         1 MOL      -0.119000
     77 C68          9.3520     0.5810     7.6790 ca         1 MOL      -0.121500
     78 C69          5.2380     2.1790     9.6410 ca         1 MOL      -0.123000
     79 C70          5.3470     4.0430    11.1760 ca         1 MOL      -0.176600
     80 C71          5.4080    -2.9670    10.0540 ca         1 MOL      -0.121000
     81 C72          7.7470    -0.0740     9.3990 cq         1 MOL      -0.035000
     82 C73          8.1650    -0.0600     8.0600 ca         1 MOL      -0.117000
     83 C74          4.3340    -2.3520    10.6840 ca         1 MOL      -0.125000
     84 C75          5.4670     3.1550    12.2470 ca         1 MOL      -0.085500
     85 C76          8.5450     0.5920    10.3390 ca         1 MOL      -0.117000
     86 C77          6.5360    -0.8060     9.8240 cq         1 MOL      -0.025000
     87 C78          5.2230     3.5580     9.8710 ca         1 MOL      -0.085500
     88 C79         11.0610     2.0350    18.2350 ca         1 MOL      -0.095250
     89 C80         11.4280    -2.4540    18.4190 cp         1 MOL      -0.019333
     90 C81         13.6700    -1.3960    18.7680 ca         1 MOL      -0.121500
     91 C82         10.6380     1.8430    20.5980 ca         1 MOL      -0.095250
     92 C83          9.0490    -3.6070    19.4050 ca         1 MOL      -0.130000
     93 C84         13.0240    -1.9980    16.5340 ca         1 MOL      -0.121500
     94 C85         12.7140    -1.9420    17.9020 cp         1 MOL      -0.043500
     95 C86          9.9980    -4.4080    18.7850 ca         1 MOL      -0.125833
     96 C87         10.9240     2.6400    19.4820 ca         1 MOL      -0.142433
     97 C88         10.8870     0.6520    18.1110 ca         1 MOL      -0.127417
     98 C89         14.2520    -1.5270    16.0520 ca         1 MOL      -0.120167
     99 C90         11.1720    -3.8370    18.2970 ca         1 MOL      -0.119833
    100 C91          9.2770    -2.2370    19.5370 ca         1 MOL      -0.120500
    101 C92         11.1130     4.1040    19.6820 c          1 MOL       0.676500
    102 C93         10.4880     0.4570    20.4660 ca         1 MOL      -0.127417
    103 C94         10.6130    -0.1660    19.2160 cp         1 MOL      -0.013667
    104 C95         13.4850     6.3300    22.7070 c3         1 MOL       0.134633
    105 C96         17.5300     1.3860    17.6410 c          1 MOL       0.676500
    106 C97         14.9770     8.1130    19.6730 ca         1 MOL      -0.121500
    107 C98         14.0700     7.7060    20.6620 ca         1 MOL      -0.120167
    108 C99         14.4380     6.7530    21.6170 ca         1 MOL      -0.107467
    109 C100        15.7370     6.2400    21.5720 ca         1 MOL      -0.120167
    110 C101        16.6440     6.6700    20.6000 ca         1 MOL      -0.121500
    111 C102        16.2810     7.5950    19.6180 cp         1 MOL      -0.043500
    112 C103        18.9100     7.7110    16.8370 ca         1 MOL      -0.120500
    113 C104        19.1000     9.0880    16.7230 ca         1 MOL      -0.130000
    114 C105        18.3790     9.9480    17.5360 ca         1 MOL      -0.125833
    115 C106        17.4690     9.4290    18.4560 ca         1 MOL      -0.119833
    116 C107        17.2510     8.0390    18.5910 cp         1 MOL      -0.019333
    117 C108        17.9980     7.1530    17.7640 cp         1 MOL      -0.036833
    118 C109        18.9880     4.8480    17.9710 ca         1 MOL      -0.127417
    119 C110        17.8670     5.6750    17.7830 cp         1 MOL      -0.013667
    120 C111        16.6300     5.0470    17.5740 ca         1 MOL      -0.127417
    121 C112        16.5070     3.6580    17.5150 ca         1 MOL      -0.095250
    122 C113        17.6380     2.8610    17.6830 ca         1 MOL      -0.142433
    123 C114        18.8770     3.4530    17.9350 ca         1 MOL      -0.095250
    124 C115        21.7230     2.6020    21.6380 ca         1 MOL      -0.093500
    125 C116        13.3630     1.9660    24.9710 ca         1 MOL      -0.095250
    126 C117        13.5790     2.6850    23.7910 ca         1 MOL      -0.142433
    127 C118        13.6910     1.9950    22.5810 ca         1 MOL      -0.095250
    128 C119        13.5410     0.6000    22.5500 ca         1 MOL      -0.127417
    129 C120        13.2800    -0.1310    23.7190 cp         1 MOL      -0.013667
    130 C121        13.2130     0.5770    24.9320 ca         1 MOL      -0.127417
    131 C122        13.0050    -1.5850    23.6960 cp         1 MOL      -0.036833
    132 C123        13.9160    -2.5750    23.2440 cp         1 MOL      -0.019333
    133 C124        13.5170    -3.9320    23.3080 ca         1 MOL      -0.119833
    134 C125        12.2620    -4.3160    23.7780 ca         1 MOL      -0.125833
    135 C126        11.3650    -3.3480    24.1980 ca         1 MOL      -0.130000
    136 C127        11.7340    -2.0040    24.1580 ca         1 MOL      -0.120500
    137 C128        15.2630    -2.2900    22.7020 cp         1 MOL      -0.043500
    138 C129        16.2330    -1.5910    23.4320 ca         1 MOL      -0.121500
    139 C130        17.5110    -1.3680    22.9020 ca         1 MOL      -0.120167
    140 C131        17.8530    -1.8370    21.6240 ca         1 MOL      -0.107467
    141 C132        16.8970    -2.5480    20.8960 ca         1 MOL      -0.120167
    142 C133        15.6260    -2.7720    21.4310 ca         1 MOL      -0.121500
    143 C134        13.7190     4.1650    23.8840 c          1 MOL       0.676500
    144 C135        20.5470     4.7430    21.6860 cp         1 MOL      -0.021000
    145 C136        20.5830     6.2230    21.7090 cp         1 MOL      -0.029000
    146 C137        20.7240     9.0430    21.5430 ca         1 MOL      -0.130000
    147 C138        21.7410     4.0010    21.6750 ca         1 MOL      -0.124000
    148 C139        19.9960     7.0200    22.7310 cp         1 MOL      -0.019000
    149 C140        20.0940     8.4270    22.6230 ca         1 MOL      -0.120000
    150 C141        19.2550     6.4640    23.8850 cp         1 MOL      -0.053000
    151 C142        19.7980     5.4850    24.7280 ca         1 MOL      -0.117000
    152 C143        19.0410     4.9220    25.7630 ca         1 MOL      -0.129500
    153 C144        21.2860     8.2660    20.5420 ca         1 MOL      -0.131000
    154 C145        16.9260     4.6370    27.0840 c3         1 MOL       0.197100
    155 C146        14.8940    -0.9220    18.2900 ca         1 MOL      -0.120167
    156 C147        21.2220     6.8760    20.6300 ca         1 MOL      -0.122000
    157 C148        17.9500     6.9040    24.1630 ca         1 MOL      -0.117000
    158 C149        20.5050     1.9200    21.5890 ca         1 MOL      -0.136600
    159 C150        19.2260    -1.5910    21.0490 c3         1 MOL       0.134633
    160 C151        15.2050    -0.9910    16.9270 ca         1 MOL      -0.107467
    161 C152        19.3360     4.0330    21.6580 ca         1 MOL      -0.124000
    162 C153        19.3080     2.6370    21.6050 ca         1 MOL      -0.093500
    163 C154        16.5520    -0.5330    16.4260 c3         1 MOL       0.134633
    164 C155        17.7220     5.3350    26.0050 ca         1 MOL      -0.111300
    165 C156        17.1950     6.3480    25.2000 ca         1 MOL      -0.129500
    166 C157        10.4580    -1.6310    19.0570 cp         1 MOL      -0.036833
    167 C158        20.5040     0.4370    21.6180 c          1 MOL       0.661700
    168 O           15.9740     2.1740    14.0580 o          1 MOL      -0.647933
    169 O1           8.4420     6.7780    16.2990 o          1 MOL      -0.647933
    170 O2          13.1760     3.3420     9.9720 o          1 MOL      -0.647933
    171 O3          11.4300     4.5140    20.7940 o          1 MOL      -0.647933
    172 O4          18.1260     0.7110    18.4760 o          1 MOL      -0.647933
    173 O5          14.1130     4.6680    24.9320 o          1 MOL      -0.647933
    174 O6          21.3760    -0.1590    22.2390 o          1 MOL      -0.620100
    175 C01          5.3510     5.3640    11.4000 c          1 MOL       0.648700
    176 O01          5.7370     5.7030    12.4850 oh         1 MOL      -0.607100
    177 O03          4.9920     6.1960    10.5780 o          1 MOL      -0.494000
    178 H01         17.5040     4.7390    28.0030 h1         1 MOL       0.053700
    179 H           10.2120     8.5730    17.2340 ha         1 MOL       0.146667
    180 H1           5.4070    -4.0430     9.9000 ha         1 MOL       0.139000
    181 H2           3.4870    -2.9430    11.0230 ha         1 MOL       0.139000
    182 H3          13.1270     4.2640    12.6280 ha         1 MOL       0.151250
    183 H4          15.9980    11.2370    11.9330 ha         1 MOL       0.133667
    184 H5          12.9050     6.6910    12.8240 ha         1 MOL       0.144500
    185 H6          17.2380     4.5190    13.9220 ha         1 MOL       0.151250
    186 H7          17.0130     6.9700    14.1140 ha         1 MOL       0.144500
    187 H8          12.2720     1.3770     8.8460 h1         1 MOL       0.071200
    188 H9          10.2560    -1.4470    12.1220 ha         1 MOL       0.137000
    189 H10          9.6550     0.5500     6.6350 ha         1 MOL       0.141000
    190 H11          7.8700     4.5080    17.1970 ha         1 MOL       0.151250
    191 H12         13.3990     5.7470    17.7950 ha         1 MOL       0.146667
    192 H13         14.1730     2.6750    11.4500 hn         1 MOL       0.337000
    193 H14         14.4700     0.3560    11.1510 h1         1 MOL       0.068533
    194 H15         16.0820     8.7820    11.8680 ha         1 MOL       0.136667
    195 H16          6.1900     0.5970    15.8520 ha         1 MOL       0.136667
    196 H17         14.7170    12.3840    13.7220 ha         1 MOL       0.134500
    197 H18         13.2030     1.7690    14.4410 ha         1 MOL       0.146667
    198 H19         14.7410     6.9460    16.1320 ha         1 MOL       0.137000
    199 H20          8.8430     4.6530    12.9970 ha         1 MOL       0.151250
    200 H21          7.4620    -3.4080    15.1130 ha         1 MOL       0.134500
    201 H22         15.1330     0.1820    12.7910 h1         1 MOL       0.068533
    202 H23          5.7620    -1.8080    15.9550 ha         1 MOL       0.133667
    203 H24         13.5160    11.0840    15.4100 ha         1 MOL       0.140500
    204 H25          8.7910     2.2160    12.8960 ha         1 MOL       0.144500
    205 H26          9.5560    -2.5860    14.1700 ha         1 MOL       0.140500
    206 H27          7.3360    -2.7090     9.1590 ha         1 MOL       0.141000
    207 H28          7.8740     2.0580    17.1080 ha         1 MOL       0.144500
    208 H29          3.4950    -0.5060    11.3770 ha         1 MOL       0.141000
    209 H30         10.9910     1.3550    15.3070 ha         1 MOL       0.137000
    210 H31         12.4640    -0.9750    11.1990 ha         1 MOL       0.146667
    211 H32         10.8830     3.8120     7.8060 hn         1 MOL       0.307500
    212 H33         14.4530     5.5490     9.6780 ha         1 MOL       0.151250
    213 H34         10.2260     5.6430     8.7940 ha         1 MOL       0.151250
    214 H35         10.3000     8.0870     8.7000 ha         1 MOL       0.144500
    215 H36         14.5070     8.0040     9.6410 ha         1 MOL       0.144500
    216 H37         11.2550    12.5790    10.6000 ha         1 MOL       0.140500
    217 H38         12.8050    13.6160     8.9950 ha         1 MOL       0.134500
    218 H39         14.1480    12.1960     7.4670 ha         1 MOL       0.133667
    219 H40         13.9360     9.7480     7.5500 ha         1 MOL       0.136667
    220 H41         12.2440     8.8780    12.0790 ha         1 MOL       0.137000
    221 H42         10.6850     7.9090    13.7100 ha         1 MOL       0.146667
    222 H43          7.4380    10.0770    11.8960 ha         1 MOL       0.146667
    223 H44          8.9860    10.9800    10.2160 ha         1 MOL       0.137000
    224 H45          8.2960     8.8200    14.9620 h1         1 MOL       0.068533
    225 H46          6.9820     8.6650    13.7880 h1         1 MOL       0.068533
    226 H47          7.5990     6.4610    13.2670 hn         1 MOL       0.337000
    227 H48          5.1560     4.2380     9.0270 ha         1 MOL       0.148000
    228 H49          5.5690     3.5290    13.2640 ha         1 MOL       0.148000
    229 H50          5.5870     1.0970    12.8520 ha         1 MOL       0.149000
    230 H51          8.2620     0.5800    11.3880 ha         1 MOL       0.140000
    231 H52          5.1660     1.8090     8.6200 ha         1 MOL       0.149000
    232 H53          7.5710    -0.5660     7.3010 ha         1 MOL       0.140000
    233 H54         11.6990     1.6620     7.2030 h1         1 MOL       0.071200
    234 H55         10.3270     1.7360    10.7240 ha         1 MOL       0.141000
    235 H56         11.5260     9.7290    15.5380 ha         1 MOL       0.137000
    236 H57         11.2820     6.6800    19.6910 h1         1 MOL       0.068533
    237 H58          9.8420     6.6710    18.6680 h1         1 MOL       0.068533
    238 H59         10.5100     4.5550    17.7410 hn         1 MOL       0.337000
    239 H60         22.6580     2.0470    21.6580 ha         1 MOL       0.147000
    240 H61         18.3470     2.1280    21.6130 ha         1 MOL       0.147000
    241 H62         18.3880     4.5590    21.6970 ha         1 MOL       0.141000
    242 H63         22.7010     4.5130    21.7150 ha         1 MOL       0.141000
    243 H64         21.6640     6.2880    19.8280 ha         1 MOL       0.135000
    244 H65         19.6630     9.0580    23.3990 ha         1 MOL       0.139000
    245 H66         20.7670    10.1270    21.4860 ha         1 MOL       0.131000
    246 H67         21.7670     8.7370    19.6900 ha         1 MOL       0.130000
    247 H68         20.8150     5.1310    24.5720 ha         1 MOL       0.133500
    248 H69         17.4870     7.6710    23.5450 ha         1 MOL       0.133500
    249 H70         19.4870     4.1390    26.3730 ha         1 MOL       0.143500
    250 H71         16.1790     6.7070    25.3500 ha         1 MOL       0.143500
    251 H72         16.7810     3.5920    26.7850 h1         1 MOL       0.053700
    252 H73         19.9760    -2.0860    21.6750 h1         1 MOL       0.068533
    253 H74         19.3080    -2.0060    20.0390 h1         1 MOL       0.068533
    254 H75         18.2440    -0.8220    23.4930 ha         1 MOL       0.146667
    255 H76         17.1280    -2.9250    19.9030 ha         1 MOL       0.146667
    256 H77         16.0080    -1.2200    24.4300 ha         1 MOL       0.137000
    257 H78         14.9050    -3.3270    20.8330 ha         1 MOL       0.137000
    258 H79         14.2080    -4.7120    22.9910 ha         1 MOL       0.140500
    259 H80         11.0100    -1.2620    24.4910 ha         1 MOL       0.136667
    260 H81         11.9920    -5.3670    23.8110 ha         1 MOL       0.134500
    261 H82         10.3810    -3.6330    24.5600 ha         1 MOL       0.133667
    262 H83         13.6140     0.0910    21.5930 ha         1 MOL       0.144500
    263 H84         13.0300     0.0440    25.8640 ha         1 MOL       0.144500
    264 H85         13.2970     2.4870    25.9240 ha         1 MOL       0.151250
    265 H86         13.9020     2.5210    21.6540 ha         1 MOL       0.151250
    266 H87         13.8220     6.7430    23.6640 h1         1 MOL       0.068533
    267 H88         12.4780     6.7160    22.5120 h1         1 MOL       0.068533
    268 H89         16.0590     5.5110    22.3140 ha         1 MOL       0.146667
    269 H90         13.0730     8.1380    20.6700 ha         1 MOL       0.146667
    270 H91         17.6580     6.2850    20.6150 ha         1 MOL       0.137000
    271 H92         14.6460     8.8400    18.9330 ha         1 MOL       0.137000
    272 H93         16.9290    10.1250    19.0970 ha         1 MOL       0.140500
    273 H94         19.4800     7.0560    16.1790 ha         1 MOL       0.136667
    274 H95         18.5220    11.0230    17.4620 ha         1 MOL       0.134500
    275 H96         19.8080     9.4830    16.0010 ha         1 MOL       0.133667
    276 H97         15.7380     5.6470    17.4650 ha         1 MOL       0.144500
    277 H98         19.9640     5.2890    18.1600 ha         1 MOL       0.144500
    278 H99         19.7570     2.8350    18.0950 ha         1 MOL       0.151250
    279 H100        15.5280     3.2130    17.3580 ha         1 MOL       0.151250
    280 H101        17.3410    -1.1070    16.9260 h1         1 MOL       0.068533
    281 H102        16.6460    -0.7170    15.3500 h1         1 MOL       0.068533
    282 H103        14.4560    -1.5860    14.9850 ha         1 MOL       0.146667
    283 H104        15.6150    -0.5090    18.9940 ha         1 MOL       0.146667
    284 H105        12.3010    -2.4000    15.8280 ha         1 MOL       0.137000
    285 H106        13.4630    -1.3460    19.8330 ha         1 MOL       0.137000
    286 H107        11.9130    -4.4830    17.8280 ha         1 MOL       0.140500
    287 H108         8.5100    -1.6280    20.0130 ha         1 MOL       0.136667
    288 H109         9.8310    -5.4770    18.6840 ha         1 MOL       0.134500
    289 H110         8.1310    -4.0450    19.7870 ha         1 MOL       0.133667
    290 H111        10.2940    -0.1380    21.3570 ha         1 MOL       0.144500
    291 H112        10.9880     0.1900    17.1340 ha         1 MOL       0.144500
    292 H113        11.3280     2.6090    17.3530 ha         1 MOL       0.151250
    293 H114        10.5430     2.2950    21.5840 ha         1 MOL       0.151250
    294 H115        15.1380     4.6490    28.0470 hn         1 MOL       0.357800
    295 H116        15.0480     5.1300    26.5060 hn         1 MOL       0.357800
    296 H117        12.8280     4.4640    22.0190 hn         1 MOL       0.337000
    297 H118        16.4050     1.5000    15.8880 hn         1 MOL       0.337000
    298 H119        18.9110     0.3430    20.2710 hn         1 MOL       0.337000
    299 H02          6.6860     5.8450    12.4570 ho         1 MOL       0.439000
@<TRIPOS>BOND
     1     1    22 1   
     2     1   101 1   
     3     1   238 1   
     4     2     9 1   
     5     2    17 1   
     6     2   192 1   
     7     3    13 1   
     8     3    71 1   
     9     3   211 1   
    10     4    33 1   
    11     4    72 1   
    12     4   226 1   
    13     5   104 1   
    14     5   143 1   
    15     5   296 1   
    16     6   105 1   
    17     6   163 1   
    18     6   297 1   
    19     7   159 1   
    20     7   167 1   
    21     7   298 1   
    22     8   154 1   
    23     8   294 1   
    24     8   295 1   
    25     9    18 1   
    26     9   168 2   
    27    10    73 1   
    28    10    75 ar  
    29    10    86 2   
    30    11    12 ar  
    31    11    19 ar  
    32    11   179 1   
    33    12    22 1   
    34    12    24 ar  
    35    13    16 1   
    36    13   187 1   
    37    13   233 1   
    38    14    15 ar  
    39    14    18 ar  
    40    14   182 1   
    41    15    32 ar  
    42    15   184 1   
    43    16    21 ar  
    44    16    77 ar  
    45    17    36 1   
    46    17   193 1   
    47    17   201 1   
    48    18    52 ar  
    49    19    26 ar  
    50    19   235 1   
    51    20    23 ar  
    52    20    31 ar  
    53    20   194 1   
    54    21    85 ar  
    55    21   234 1   
    56    22   236 1   
    57    22   237 1   
    58    23    30 ar  
    59    23   183 1   
    60    24    25 ar  
    61    24   191 1   
    62    25    26 ar  
    63    25   198 1   
    64    26    28 1   
    65    27    28 ar  
    66    27    30 ar  
    67    27   203 1   
    68    28    31 ar  
    69    29    32 ar  
    70    29    52 ar  
    71    29   186 1   
    72    30   196 1   
    73    31    32 1   
    74    33    50 1   
    75    33   169 2   
    76    34    35 ar  
    77    34    39 ar  
    78    34   188 1   
    79    35    36 ar  
    80    35   210 1   
    81    36    37 ar  
    82    37    38 ar  
    83    37   197 1   
    84    38    39 ar  
    85    38   209 1   
    86    39    44 1   
    87    40    41 ar  
    88    40    45 ar  
    89    40   195 1   
    90    41    42 ar  
    91    41   202 1   
    92    42    43 ar  
    93    42   200 1   
    94    43    44 ar  
    95    43   205 1   
    96    44    45 ar  
    97    45    47 1   
    98    46    47 ar  
    99    46    51 ar  
   100    46   207 1   
   101    47    48 ar  
   102    48    49 ar  
   103    48   204 1   
   104    49    50 ar  
   105    49   199 1   
   106    50    51 ar  
   107    51   190 1   
   108    52   185 1   
   109    53    54 ar  
   110    53    58 ar  
   111    53   212 1   
   112    54    55 ar  
   113    54    71 1   
   114    55    56 ar  
   115    55   213 1   
   116    56    57 ar  
   117    56   214 1   
   118    57    58 ar  
   119    57    59 1   
   120    58   215 1   
   121    59    60 ar  
   122    59    64 ar  
   123    60    61 ar  
   124    60    65 1   
   125    61    62 ar  
   126    61   216 1   
   127    62    63 ar  
   128    62   217 1   
   129    63    64 ar  
   130    63   218 1   
   131    64   219 1   
   132    65    66 ar  
   133    65    70 ar  
   134    66    67 ar  
   135    66   220 1   
   136    67    68 ar  
   137    67   221 1   
   138    68    69 ar  
   139    68    72 1   
   140    69    70 ar  
   141    69   222 1   
   142    70   223 1   
   143    71   170 2   
   144    72   224 1   
   145    72   225 1   
   146    73    74 ar  
   147    73    78 ar  
   148    74    84 ar  
   149    74   229 1   
   150    75    83 ar  
   151    75   208 1   
   152    76    80 ar  
   153    76    86 1   
   154    76   206 1   
   155    77    82 ar  
   156    77   189 1   
   157    78    87 ar  
   158    78   231 1   
   159    79    84 ar  
   160    79    87 ar  
   161    79   175 1   
   162    80    83 ar  
   163    80   180 1   
   164    81    82 2   
   165    81    85 1   
   166    81    86 1   
   167    82   232 1   
   168    83   181 1   
   169    84   228 1   
   170    85   230 1   
   171    87   227 1   
   172    88    96 ar  
   173    88    97 ar  
   174    88   292 1   
   175    89    94 1   
   176    89    99 ar  
   177    89   166 ar  
   178    90    94 ar  
   179    90   155 ar  
   180    90   285 1   
   181    91    96 ar  
   182    91   102 ar  
   183    91   293 1   
   184    92    95 ar  
   185    92   100 ar  
   186    92   289 1   
   187    93    94 ar  
   188    93    98 ar  
   189    93   284 1   
   190    95    99 ar  
   191    95   288 1   
   192    96   101 1   
   193    97   103 ar  
   194    97   291 1   
   195    98   160 ar  
   196    98   282 1   
   197    99   286 1   
   198   100   166 ar  
   199   100   287 1   
   200   101   171 2   
   201   102   103 ar  
   202   102   290 1   
   203   103   166 1   
   204   104   108 1   
   205   104   266 1   
   206   104   267 1   
   207   105   122 1   
   208   105   172 2   
   209   106   107 ar  
   210   106   111 ar  
   211   106   271 1   
   212   107   108 ar  
   213   107   269 1   
   214   108   109 ar  
   215   109   110 ar  
   216   109   268 1   
   217   110   111 ar  
   218   110   270 1   
   219   111   116 1   
   220   112   113 ar  
   221   112   117 ar  
   222   112   273 1   
   223   113   114 ar  
   224   113   275 1   
   225   114   115 ar  
   226   114   274 1   
   227   115   116 ar  
   228   115   272 1   
   229   116   117 ar  
   230   117   119 1   
   231   118   119 ar  
   232   118   123 ar  
   233   118   277 1   
   234   119   120 ar  
   235   120   121 ar  
   236   120   276 1   
   237   121   122 ar  
   238   121   279 1   
   239   122   123 ar  
   240   123   278 1   
   241   124   147 ar  
   242   124   158 ar  
   243   124   239 1   
   244   125   126 ar  
   245   125   130 ar  
   246   125   264 1   
   247   126   127 ar  
   248   126   143 1   
   249   127   128 ar  
   250   127   265 1   
   251   128   129 ar  
   252   128   262 1   
   253   129   130 ar  
   254   129   131 1   
   255   130   263 1   
   256   131   132 ar  
   257   131   136 ar  
   258   132   133 ar  
   259   132   137 1   
   260   133   134 ar  
   261   133   258 1   
   262   134   135 ar  
   263   134   260 1   
   264   135   136 ar  
   265   135   261 1   
   266   136   259 1   
   267   137   138 ar  
   268   137   142 ar  
   269   138   139 ar  
   270   138   256 1   
   271   139   140 ar  
   272   139   254 1   
   273   140   141 ar  
   274   140   159 1   
   275   141   142 ar  
   276   141   255 1   
   277   142   257 1   
   278   143   173 2   
   279   144   145 1   
   280   144   147 ar  
   281   144   161 ar  
   282   145   148 ar  
   283   145   156 ar  
   284   146   149 ar  
   285   146   153 ar  
   286   146   245 1   
   287   147   242 1   
   288   148   149 ar  
   289   148   150 1   
   290   149   244 1   
   291   150   151 ar  
   292   150   157 ar  
   293   151   152 ar  
   294   151   247 1   
   295   152   164 ar  
   296   152   249 1   
   297   153   156 ar  
   298   153   246 1   
   299   154   164 1   
   300   154   178 1   
   301   154   251 1   
   302   155   160 ar  
   303   155   283 1   
   304   156   243 1   
   305   157   165 ar  
   306   157   248 1   
   307   158   162 ar  
   308   158   167 1   
   309   159   252 1   
   310   159   253 1   
   311   160   163 1   
   312   161   162 ar  
   313   161   241 1   
   314   162   240 1   
   315   163   280 1   
   316   163   281 1   
   317   164   165 ar  
   318   165   250 1   
   319   167   174 2   
   320   175   176 1   
   321   175   177 2   
   322   176   299 1   
@<TRIPOS>SUBSTRUCTURE
     1 MOL         1 TEMP              0 ****  ****    0 ROOT
