@<TRIPOS>MOLECULE
MOL
   40    42     1     0     0
SMALL
bcc


@<TRIPOS>ATOM
      1 N           14.5400     2.2820    12.1020 n3         1 MOL      -0.900800
      2 C            8.5090     4.2040    16.3410 ca         1 MOL      -0.088000
      3 C1           8.6440     4.9030    15.1390 ca         1 MOL      -0.175600
      4 C2           8.7530     4.1960    13.9390 ca         1 MOL      -0.088000
      5 C3           8.6680     2.8000    13.9420 ca         1 MOL      -0.124000
      6 C4           8.4710     2.0800    15.1310 cp         1 MOL      -0.003000
      7 C5           8.4170     2.8080    16.3330 ca         1 MOL      -0.124000
      8 C6           8.2400     0.6170    15.1220 cp         1 MOL      -0.040000
      9 C7           9.1340    -0.3360    14.5660 cq         1 MOL      -0.022000
     10 C8           8.7640    -1.7010    14.5960 ca         1 MOL      -0.120000
     11 C9           7.5540    -2.1300    15.1410 ca         1 MOL      -0.122000
     12 C10          6.6800    -1.2010    15.6810 ca         1 MOL      -0.127000
     13 C11          7.0210     0.1510    15.6730 ca         1 MOL      -0.116000
     14 C12         10.4410     0.0040    13.9600 cq         1 MOL      -0.046000
     15 C13         11.4320     0.6910    14.6740 ca         1 MOL      -0.114000
     16 C14         12.6740     0.9690    14.0930 ca         1 MOL      -0.126500
     17 C15         12.9610     0.5680    12.7810 ca         1 MOL      -0.125300
     18 C16         11.9820    -0.1240    12.0640 ca         1 MOL      -0.126500
     19 C17         10.7440    -0.4050    12.6490 ca         1 MOL      -0.114000
     20 C18         14.3070     0.8610    12.1650 c3         1 MOL       0.194100
     21 C01          8.6690     6.2430    15.1370 c          1 MOL       0.639700
     22 O01          9.7610     6.7390    15.1330 oh         1 MOL      -0.579100
     23 O03          7.6660     6.9430    15.1400 o          1 MOL      -0.486000
     24 H01         14.4140     2.6540    13.0330 hn         1 MOL       0.347300
     25 H03         14.3260     0.4850    11.1420 h1         1 MOL       0.061200
     26 H            8.4510     4.7440    17.2830 ha         1 MOL       0.147000
     27 H1           8.9020     4.7160    12.9970 ha         1 MOL       0.147000
     28 H2           8.7350     2.2760    12.9950 ha         1 MOL       0.148000
     29 H3           8.2870     2.2870    17.2800 ha         1 MOL       0.148000
     30 H4           9.4410    -2.4530    14.1920 ha         1 MOL       0.141000
     31 H5           7.3020    -3.1870    15.1430 ha         1 MOL       0.137000
     32 H6           5.7340    -1.5220    16.1060 ha         1 MOL       0.137000
     33 H7           6.3100     0.8630    16.0910 ha         1 MOL       0.139000
     34 H8          11.2500     1.0080    15.6990 ha         1 MOL       0.139500
     35 H9          13.4260     1.5010    14.6750 ha         1 MOL       0.134000
     36 H10         12.1720    -0.4530    11.0450 ha         1 MOL       0.134000
     37 H11         10.0050    -0.9490    12.0640 ha         1 MOL       0.139500
     38 H12         15.0890     0.3520    12.7390 h1         1 MOL       0.061200
     39 H13         13.9450     2.8220    11.4710 hn         1 MOL       0.347300
     40 H02         10.0500     6.8700    14.2270 ho         1 MOL       0.425000
@<TRIPOS>BOND
     1     1    20 1   
     2     1    24 1   
     3     1    39 1   
     4     2     3 ar  
     5     2     7 ar  
     6     2    26 1   
     7     3     4 ar  
     8     3    21 1   
     9     4     5 ar  
    10     4    27 1   
    11     5     6 ar  
    12     5    28 1   
    13     6     7 ar  
    14     6     8 1   
    15     7    29 1   
    16     8     9 1   
    17     8    13 ar  
    18     9    10 2   
    19     9    14 1   
    20    10    11 ar  
    21    10    30 1   
    22    11    12 ar  
    23    11    31 1   
    24    12    13 ar  
    25    12    32 1   
    26    13    33 1   
    27    14    15 1   
    28    14    19 2   
    29    15    16 ar  
    30    15    34 1   
    31    16    17 ar  
    32    16    35 1   
    33    17    18 ar  
    34    17    20 1   
    35    18    19 ar  
    36    18    36 1   
    37    19    37 1   
    38    20    25 1   
    39    20    38 1   
    40    21    22 1   
    41    21    23 2   
    42    22    40 1   
@<TRIPOS>SUBSTRUCTURE
     1 MOL         1 TEMP              0 ****  ****    0 ROOT
